*************************************************
   ChampSim Multicore Out-of-Order Simulator
   Last compiled: Apr 16 2025 08:14:40
*************************************************
parsing config file: /pref/Pythia/config/coop_pythia.ini

trace_0 /pref/Pythia/NUTCH/traces/nutch_phase2_core0.trace.xz
trace_1 /pref/Pythia/NUTCH/traces/nutch_phase2_core1.trace.xz
trace_2 /pref/Pythia/NUTCH/traces/nutch_phase2_core2.trace.xz
trace_3 /pref/Pythia/NUTCH/traces/nutch_phase2_core3.trace.xz
CPU 0 Bimodal branch predictor
CPU 1 Bimodal branch predictor
CPU 2 Bimodal branch predictor
CPU 3 Bimodal branch predictor
warmup_instructions 50000000
simulation_instructions 150000000
champsim_seed 7158
measure_ipc 0
measure_ipc_epoch 1000
measure_dram_bw 1
measure_dram_bw_epoch 256
measure_cache_acc 1
measure_cache_acc_epoch 1024
l1d_perfect 0
l2c_perfect 0
llc_perfect 0
l1d_semi_perfect 0
l2c_semi_perfect 0
llc_semi_perfect 0
semi_perfect_cache_page_buffer_size 64

num_cpus 4
cpu_freq 4000
dram_io_freq 2400
page_size 4096
block_size 64
max_read_per_cycle 8
max_fill_per_cycle 1
dram_channels 2
log2_dram_channels 1
dram_ranks 1
dram_banks 8
dram_rows 65536
dram_columns 128
dram_row_size 8
dram_size 8192
dram_pages 2097152
======= Prefetcher Knob Settings =======
coop_enable_multicore: 1
coop_enable_bw_throttling: 1
coop_rl_enable: 1
coop_rl_ipc_threshold: 
coop_rl_alpha_high_ipc: 0.1
coop_rl_alpha_low_ipc: 0.02
coop_rl_bw_threshold: 2
========================================
fetch_width 6
decode_width 6
exec_width 4
lq_width 2
sq_width 2
retire_width 4
scheduler_size 128
branch_mispredict_penalty 20
rob_size 256
lq_size 72
sq_size 56
num_instr_destinations_sparc 4
num_instr_destinations 2
num_instr_sources 4

itlb_set 16
itlb_way 8
itlb_rq_size 16
itlb_wq_size 16
itlb_pq_size 0
itlb_mshr_size 8
itlb_latency 1

dtlb_set 16
dtlb_way 4
dtlb_rq_size 16
dtlb_wq_size 16
dtlb_pq_size 0
dtlb_mshr_size 8
dtlb_latency 1

stlb_set 128
stlb_way 12
stlb_rq_size 32
stlb_wq_size 32
stlb_pq_size 0
stlb_mshr_size 16
stlb_latency 8

l1i_size 32
l1i_set 64
l1i_way 8
l1i_rq_size 64
l1i_wq_size 64
l1i_pq_size 8
l1i_mshr_size 8
l1i_latency 1

l1d_size 32
l1d_set 64
l1d_way 8
l1d_rq_size 64
l1d_wq_size 64
l1d_pq_size 16
l1d_mshr_size 16
l1d_latency 4

l2c_size 256
l2c_set 512
l2c_way 8
l2c_rq_size 64
l2c_wq_size 32
l2c_pq_size 64
l2c_mshr_size 64
l2c_latency 10

llc_size 8192
llc_set 8192
llc_way 16
llc_rq_size 256
llc_wq_size 256
llc_pq_size 128
llc_mshr_size 256
llc_latency 20

dram_channel_width 8
dram_wq_size 64
dram_rq_size 64
tRP 15
tRCD 15
tCAS 12.5
dram_dbus_turn_around_time 30
dram_write_high_wm 56
dram_write_low_wm 48
min_dram_writes_per_switch 16
dram_mtps 2400
dram_dbus_return_time 13

[CoopPythia Config]
 - Bandwidth-aware throttling: Enabled
 - Multicore cooperation: Enabled
 - RL Enabled: Yes
 - Adaptive Alpha: Enabled
 - IPC Threshold: 5
 - BW Threshold: 2
 - Alpha High: 0.1
 - Alpha Low: 0.02

Heartbeat CPU  0 instructions:    1000002 cycles:     619554 heartbeat IPC: 1.61407 cumulative IPC: 1.61407 (Simulation time: 0 hr 0 min 3 sec) 
Heartbeat CPU  2 instructions:    1000002 cycles:     795195 heartbeat IPC: 1.25756 cumulative IPC: 1.25756 (Simulation time: 0 hr 0 min 4 sec) 
Heartbeat CPU  1 instructions:    1000001 cycles:     795857 heartbeat IPC: 1.25651 cumulative IPC: 1.25651 (Simulation time: 0 hr 0 min 4 sec) 
Heartbeat CPU  3 instructions:    1000001 cycles:    1022707 heartbeat IPC: 0.97780 cumulative IPC: 0.97780 (Simulation time: 0 hr 0 min 5 sec) 
Heartbeat CPU  0 instructions:    2000001 cycles:    1255378 heartbeat IPC: 1.57276 cumulative IPC: 1.59315 (Simulation time: 0 hr 0 min 6 sec) 
Heartbeat CPU  2 instructions:    2000002 cycles:    1589725 heartbeat IPC: 1.25861 cumulative IPC: 1.25808 (Simulation time: 0 hr 0 min 8 sec) 
Heartbeat CPU  1 instructions:    2000000 cycles:    1591008 heartbeat IPC: 1.25762 cumulative IPC: 1.25706 (Simulation time: 0 hr 0 min 8 sec) 
Heartbeat CPU  0 instructions:    3000000 cycles:    1882065 heartbeat IPC: 1.59569 cumulative IPC: 1.59399 (Simulation time: 0 hr 0 min 10 sec) 
Heartbeat CPU  3 instructions:    2000001 cycles:    2044578 heartbeat IPC: 0.97860 cumulative IPC: 0.97820 (Simulation time: 0 hr 0 min 10 sec) 
Heartbeat CPU  2 instructions:    3000001 cycles:    2384252 heartbeat IPC: 1.25861 cumulative IPC: 1.25826 (Simulation time: 0 hr 0 min 12 sec) 
Heartbeat CPU  1 instructions:    3000002 cycles:    2386155 heartbeat IPC: 1.25763 cumulative IPC: 1.25725 (Simulation time: 0 hr 0 min 12 sec) 
Heartbeat CPU  0 instructions:    4000000 cycles:    2469814 heartbeat IPC: 1.70141 cumulative IPC: 1.61956 (Simulation time: 0 hr 0 min 13 sec) 
Heartbeat CPU  0 instructions:    5000000 cycles:    3051932 heartbeat IPC: 1.71786 cumulative IPC: 1.63831 (Simulation time: 0 hr 0 min 16 sec) 
Heartbeat CPU  3 instructions:    3000001 cycles:    3066459 heartbeat IPC: 0.97859 cumulative IPC: 0.97833 (Simulation time: 0 hr 0 min 16 sec) 
Heartbeat CPU  2 instructions:    4000000 cycles:    3178767 heartbeat IPC: 1.25863 cumulative IPC: 1.25835 (Simulation time: 0 hr 0 min 16 sec) 
Heartbeat CPU  1 instructions:    4000000 cycles:    3181270 heartbeat IPC: 1.25768 cumulative IPC: 1.25736 (Simulation time: 0 hr 0 min 16 sec) 
Heartbeat CPU  0 instructions:    6000001 cycles:    3686564 heartbeat IPC: 1.57572 cumulative IPC: 1.62753 (Simulation time: 0 hr 0 min 19 sec) 
Heartbeat CPU  2 instructions:    5000002 cycles:    3973282 heartbeat IPC: 1.25863 cumulative IPC: 1.25841 (Simulation time: 0 hr 0 min 20 sec) 
Heartbeat CPU  1 instructions:    5000001 cycles:    3976262 heartbeat IPC: 1.25788 cumulative IPC: 1.25746 (Simulation time: 0 hr 0 min 20 sec) 
Heartbeat CPU  3 instructions:    4000000 cycles:    4088329 heartbeat IPC: 0.97860 cumulative IPC: 0.97839 (Simulation time: 0 hr 0 min 21 sec) 
Heartbeat CPU  0 instructions:    7000001 cycles:    4408345 heartbeat IPC: 1.38546 cumulative IPC: 1.58790 (Simulation time: 0 hr 0 min 22 sec) 
Heartbeat CPU  2 instructions:    6000000 cycles:    4767822 heartbeat IPC: 1.25859 cumulative IPC: 1.25844 (Simulation time: 0 hr 0 min 24 sec) 
Heartbeat CPU  1 instructions:    6000000 cycles:    4771233 heartbeat IPC: 1.25791 cumulative IPC: 1.25754 (Simulation time: 0 hr 0 min 24 sec) 
Heartbeat CPU  0 instructions:    8000000 cycles:    5095515 heartbeat IPC: 1.45524 cumulative IPC: 1.57001 (Simulation time: 0 hr 0 min 25 sec) 
Heartbeat CPU  3 instructions:    5000001 cycles:    5110220 heartbeat IPC: 0.97858 cumulative IPC: 0.97843 (Simulation time: 0 hr 0 min 25 sec) 
Heartbeat CPU  2 instructions:    7000002 cycles:    5562344 heartbeat IPC: 1.25862 cumulative IPC: 1.25846 (Simulation time: 0 hr 0 min 27 sec) 
Heartbeat CPU  1 instructions:    7000000 cycles:    5566502 heartbeat IPC: 1.25744 cumulative IPC: 1.25752 (Simulation time: 0 hr 0 min 27 sec) 
Heartbeat CPU  0 instructions:    9000003 cycles:    5770608 heartbeat IPC: 1.48128 cumulative IPC: 1.55963 (Simulation time: 0 hr 0 min 28 sec) 
Heartbeat CPU  3 instructions:    6000001 cycles:    6132094 heartbeat IPC: 0.97859 cumulative IPC: 0.97846 (Simulation time: 0 hr 0 min 30 sec) 
Heartbeat CPU  2 instructions:    8000000 cycles:    6356844 heartbeat IPC: 1.25865 cumulative IPC: 1.25849 (Simulation time: 0 hr 0 min 31 sec) 
Heartbeat CPU  1 instructions:    8000000 cycles:    6361793 heartbeat IPC: 1.25740 cumulative IPC: 1.25751 (Simulation time: 0 hr 0 min 31 sec) 
Heartbeat CPU  0 instructions:   10000002 cycles:    6722515 heartbeat IPC: 1.05052 cumulative IPC: 1.48754 (Simulation time: 0 hr 0 min 33 sec) 
Heartbeat CPU  2 instructions:    9000000 cycles:    7151384 heartbeat IPC: 1.25859 cumulative IPC: 1.25850 (Simulation time: 0 hr 0 min 35 sec) 
Heartbeat CPU  3 instructions:    7000001 cycles:    7153969 heartbeat IPC: 0.97859 cumulative IPC: 0.97848 (Simulation time: 0 hr 0 min 35 sec) 
Heartbeat CPU  1 instructions:    9000002 cycles:    7157030 heartbeat IPC: 1.25749 cumulative IPC: 1.25751 (Simulation time: 0 hr 0 min 35 sec) 
Heartbeat CPU  0 instructions:   11000000 cycles:    7273510 heartbeat IPC: 1.81489 cumulative IPC: 1.51234 (Simulation time: 0 hr 0 min 35 sec) 
Heartbeat CPU  0 instructions:   12000000 cycles:    7785360 heartbeat IPC: 1.95370 cumulative IPC: 1.54135 (Simulation time: 0 hr 0 min 38 sec) 
Heartbeat CPU  2 instructions:   10000001 cycles:    7945916 heartbeat IPC: 1.25860 cumulative IPC: 1.25851 (Simulation time: 0 hr 0 min 39 sec) 
Heartbeat CPU  1 instructions:   10000003 cycles:    7951973 heartbeat IPC: 1.25795 cumulative IPC: 1.25755 (Simulation time: 0 hr 0 min 39 sec) 
Heartbeat CPU  3 instructions:    8000000 cycles:    8175844 heartbeat IPC: 0.97859 cumulative IPC: 0.97849 (Simulation time: 0 hr 0 min 40 sec) 
Heartbeat CPU  0 instructions:   13000001 cycles:    8285939 heartbeat IPC: 1.99769 cumulative IPC: 1.56892 (Simulation time: 0 hr 0 min 41 sec) 
Heartbeat CPU  2 instructions:   11000001 cycles:    8740425 heartbeat IPC: 1.25864 cumulative IPC: 1.25852 (Simulation time: 0 hr 0 min 43 sec) 
Heartbeat CPU  1 instructions:   11000002 cycles:    8747164 heartbeat IPC: 1.25756 cumulative IPC: 1.25755 (Simulation time: 0 hr 0 min 43 sec) 
Heartbeat CPU  0 instructions:   14000000 cycles:    8768289 heartbeat IPC: 2.07318 cumulative IPC: 1.59666 (Simulation time: 0 hr 0 min 43 sec) 
Heartbeat CPU  3 instructions:    9000001 cycles:    9197732 heartbeat IPC: 0.97858 cumulative IPC: 0.97850 (Simulation time: 0 hr 0 min 45 sec) 
Heartbeat CPU  0 instructions:   15000003 cycles:    9253205 heartbeat IPC: 2.06222 cumulative IPC: 1.62106 (Simulation time: 0 hr 0 min 46 sec) 
Heartbeat CPU  2 instructions:   12000000 cycles:    9534933 heartbeat IPC: 1.25864 cumulative IPC: 1.25853 (Simulation time: 0 hr 0 min 47 sec) 
Heartbeat CPU  1 instructions:   12000000 cycles:    9542285 heartbeat IPC: 1.25767 cumulative IPC: 1.25756 (Simulation time: 0 hr 0 min 47 sec) 
Heartbeat CPU  0 instructions:   16000000 cycles:    9755713 heartbeat IPC: 1.99001 cumulative IPC: 1.64006 (Simulation time: 0 hr 0 min 48 sec) 
Heartbeat CPU  3 instructions:   10000001 cycles:   10219604 heartbeat IPC: 0.97860 cumulative IPC: 0.97851 (Simulation time: 0 hr 0 min 50 sec) 
Heartbeat CPU  0 instructions:   17000001 cycles:   10265702 heartbeat IPC: 1.96083 cumulative IPC: 1.65600 (Simulation time: 0 hr 0 min 51 sec) 
Heartbeat CPU  2 instructions:   13000001 cycles:   10332273 heartbeat IPC: 1.25417 cumulative IPC: 1.25819 (Simulation time: 0 hr 0 min 51 sec) 
Heartbeat CPU  1 instructions:   13000000 cycles:   10339895 heartbeat IPC: 1.25375 cumulative IPC: 1.25727 (Simulation time: 0 hr 0 min 51 sec) 
Heartbeat CPU  0 instructions:   18000003 cycles:   10745969 heartbeat IPC: 2.08218 cumulative IPC: 1.67505 (Simulation time: 0 hr 0 min 53 sec) 
Heartbeat CPU  2 instructions:   14000001 cycles:   11128285 heartbeat IPC: 1.25626 cumulative IPC: 1.25806 (Simulation time: 0 hr 0 min 55 sec) 
Heartbeat CPU  1 instructions:   14000002 cycles:   11135119 heartbeat IPC: 1.25751 cumulative IPC: 1.25728 (Simulation time: 0 hr 0 min 55 sec) 
Heartbeat CPU  3 instructions:   11000001 cycles:   11241476 heartbeat IPC: 0.97860 cumulative IPC: 0.97852 (Simulation time: 0 hr 0 min 56 sec) 
Heartbeat CPU  0 instructions:   19000003 cycles:   11272296 heartbeat IPC: 1.89996 cumulative IPC: 1.68555 (Simulation time: 0 hr 0 min 56 sec) 
Heartbeat CPU  2 instructions:   15000002 cycles:   11924301 heartbeat IPC: 1.25626 cumulative IPC: 1.25794 (Simulation time: 0 hr 0 min 59 sec) 
Heartbeat CPU  1 instructions:   15000003 cycles:   11930204 heartbeat IPC: 1.25773 cumulative IPC: 1.25731 (Simulation time: 0 hr 0 min 59 sec) 
Heartbeat CPU  0 instructions:   20000000 cycles:   11937942 heartbeat IPC: 1.50230 cumulative IPC: 1.67533 (Simulation time: 0 hr 0 min 59 sec) 
Heartbeat CPU  3 instructions:   12000000 cycles:   12263358 heartbeat IPC: 0.97859 cumulative IPC: 0.97852 (Simulation time: 0 hr 1 min 0 sec) 
Heartbeat CPU  0 instructions:   21000000 cycles:   12601600 heartbeat IPC: 1.50680 cumulative IPC: 1.66646 (Simulation time: 0 hr 1 min 2 sec) 
Heartbeat CPU  2 instructions:   16000000 cycles:   12720337 heartbeat IPC: 1.25622 cumulative IPC: 1.25783 (Simulation time: 0 hr 1 min 3 sec) 
Heartbeat CPU  1 instructions:   16000000 cycles:   12725381 heartbeat IPC: 1.25758 cumulative IPC: 1.25733 (Simulation time: 0 hr 1 min 3 sec) 
Heartbeat CPU  0 instructions:   22000001 cycles:   13137583 heartbeat IPC: 1.86573 cumulative IPC: 1.67459 (Simulation time: 0 hr 1 min 5 sec) 
Heartbeat CPU  3 instructions:   13000002 cycles:   13287353 heartbeat IPC: 0.97657 cumulative IPC: 0.97837 (Simulation time: 0 hr 1 min 5 sec) 
Heartbeat CPU  2 instructions:   17000001 cycles:   13516362 heartbeat IPC: 1.25624 cumulative IPC: 1.25774 (Simulation time: 0 hr 1 min 6 sec) 
Heartbeat CPU  1 instructions:   17000000 cycles:   13520490 heartbeat IPC: 1.25769 cumulative IPC: 1.25735 (Simulation time: 0 hr 1 min 7 sec) 
Heartbeat CPU  0 instructions:   23000001 cycles:   13643799 heartbeat IPC: 1.97544 cumulative IPC: 1.68575 (Simulation time: 0 hr 1 min 7 sec) 
Heartbeat CPU  3 instructions:   14000002 cycles:   14308453 heartbeat IPC: 0.97934 cumulative IPC: 0.97844 (Simulation time: 0 hr 1 min 10 sec) 
Heartbeat CPU  2 instructions:   18000003 cycles:   14312359 heartbeat IPC: 1.25629 cumulative IPC: 1.25765 (Simulation time: 0 hr 1 min 10 sec) 
Heartbeat CPU  1 instructions:   18000000 cycles:   14315609 heartbeat IPC: 1.25767 cumulative IPC: 1.25737 (Simulation time: 0 hr 1 min 10 sec) 
Heartbeat CPU  0 instructions:   24000000 cycles:   14320450 heartbeat IPC: 1.47787 cumulative IPC: 1.67593 (Simulation time: 0 hr 1 min 10 sec) 
Heartbeat CPU  0 instructions:   25000001 cycles:   15045172 heartbeat IPC: 1.37984 cumulative IPC: 1.66166 (Simulation time: 0 hr 1 min 14 sec) 
Heartbeat CPU  2 instructions:   19000002 cycles:   15108388 heartbeat IPC: 1.25623 cumulative IPC: 1.25758 (Simulation time: 0 hr 1 min 14 sec) 
Heartbeat CPU  1 instructions:   19000001 cycles:   15110748 heartbeat IPC: 1.25764 cumulative IPC: 1.25738 (Simulation time: 0 hr 1 min 14 sec) 
Heartbeat CPU  3 instructions:   15000002 cycles:   15329545 heartbeat IPC: 0.97934 cumulative IPC: 0.97850 (Simulation time: 0 hr 1 min 15 sec) 
Heartbeat CPU  0 instructions:   26000001 cycles:   15822712 heartbeat IPC: 1.28611 cumulative IPC: 1.64321 (Simulation time: 0 hr 1 min 17 sec) 
Heartbeat CPU  2 instructions:   20000000 cycles:   15904421 heartbeat IPC: 1.25623 cumulative IPC: 1.25751 (Simulation time: 0 hr 1 min 18 sec) 
Heartbeat CPU  1 instructions:   20000000 cycles:   15905876 heartbeat IPC: 1.25766 cumulative IPC: 1.25740 (Simulation time: 0 hr 1 min 18 sec) 
Heartbeat CPU  3 instructions:   16000000 cycles:   16350637 heartbeat IPC: 0.97934 cumulative IPC: 0.97856 (Simulation time: 0 hr 1 min 19 sec) 
Heartbeat CPU  0 instructions:   27000000 cycles:   16659638 heartbeat IPC: 1.19485 cumulative IPC: 1.62068 (Simulation time: 0 hr 1 min 21 sec) 
Heartbeat CPU  2 instructions:   21000003 cycles:   16700425 heartbeat IPC: 1.25628 cumulative IPC: 1.25745 (Simulation time: 0 hr 1 min 21 sec) 
Heartbeat CPU  1 instructions:   21000003 cycles:   16700977 heartbeat IPC: 1.25771 cumulative IPC: 1.25741 (Simulation time: 0 hr 1 min 21 sec) 
Heartbeat CPU  3 instructions:   17000002 cycles:   17371728 heartbeat IPC: 0.97935 cumulative IPC: 0.97860 (Simulation time: 0 hr 1 min 24 sec) 
Heartbeat CPU  0 instructions:   28000000 cycles:   17439905 heartbeat IPC: 1.28161 cumulative IPC: 1.60551 (Simulation time: 0 hr 1 min 24 sec) 
Heartbeat CPU  1 instructions:   22000002 cycles:   17496154 heartbeat IPC: 1.25758 cumulative IPC: 1.25742 (Simulation time: 0 hr 1 min 25 sec) 
Heartbeat CPU  2 instructions:   22000000 cycles:   17496437 heartbeat IPC: 1.25626 cumulative IPC: 1.25740 (Simulation time: 0 hr 1 min 25 sec) 
Heartbeat CPU  1 instructions:   23000000 cycles:   18291355 heartbeat IPC: 1.25754 cumulative IPC: 1.25742 (Simulation time: 0 hr 1 min 28 sec) 
Heartbeat CPU  2 instructions:   23000000 cycles:   18292477 heartbeat IPC: 1.25622 cumulative IPC: 1.25735 (Simulation time: 0 hr 1 min 28 sec) 
Heartbeat CPU  0 instructions:   29000000 cycles:   18343925 heartbeat IPC: 1.10617 cumulative IPC: 1.58090 (Simulation time: 0 hr 1 min 28 sec) 
Heartbeat CPU  3 instructions:   18000002 cycles:   18392828 heartbeat IPC: 0.97934 cumulative IPC: 0.97864 (Simulation time: 0 hr 1 min 28 sec) 
Heartbeat CPU  0 instructions:   30000002 cycles:   19000504 heartbeat IPC: 1.52305 cumulative IPC: 1.57891 (Simulation time: 0 hr 1 min 31 sec) 
Heartbeat CPU  1 instructions:   24000000 cycles:   19086633 heartbeat IPC: 1.25742 cumulative IPC: 1.25742 (Simulation time: 0 hr 1 min 32 sec) 
Heartbeat CPU  2 instructions:   24000000 cycles:   19088509 heartbeat IPC: 1.25623 cumulative IPC: 1.25730 (Simulation time: 0 hr 1 min 32 sec) 
Heartbeat CPU  3 instructions:   19000002 cycles:   19413920 heartbeat IPC: 0.97934 cumulative IPC: 0.97868 (Simulation time: 0 hr 1 min 33 sec) 
Heartbeat CPU  0 instructions:   31000000 cycles:   19582898 heartbeat IPC: 1.71705 cumulative IPC: 1.58301 (Simulation time: 0 hr 1 min 34 sec) 
Heartbeat CPU  1 instructions:   25000002 cycles:   19882113 heartbeat IPC: 1.25711 cumulative IPC: 1.25741 (Simulation time: 0 hr 1 min 36 sec) 
Heartbeat CPU  2 instructions:   25000000 cycles:   19884515 heartbeat IPC: 1.25627 cumulative IPC: 1.25726 (Simulation time: 0 hr 1 min 36 sec) 
Heartbeat CPU  0 instructions:   32000000 cycles:   20087738 heartbeat IPC: 1.98083 cumulative IPC: 1.59301 (Simulation time: 0 hr 1 min 37 sec) 
Heartbeat CPU  3 instructions:   20000000 cycles:   20435012 heartbeat IPC: 0.97934 cumulative IPC: 0.97871 (Simulation time: 0 hr 1 min 39 sec) 
Heartbeat CPU  0 instructions:   33000002 cycles:   20592092 heartbeat IPC: 1.98274 cumulative IPC: 1.60256 (Simulation time: 0 hr 1 min 39 sec) 
Heartbeat CPU  1 instructions:   26000000 cycles:   20677561 heartbeat IPC: 1.25715 cumulative IPC: 1.25740 (Simulation time: 0 hr 1 min 40 sec) 
Heartbeat CPU  2 instructions:   26000000 cycles:   20680524 heartbeat IPC: 1.25627 cumulative IPC: 1.25722 (Simulation time: 0 hr 1 min 40 sec) 
Heartbeat CPU  0 instructions:   34000002 cycles:   21087270 heartbeat IPC: 2.01948 cumulative IPC: 1.61235 (Simulation time: 0 hr 1 min 42 sec) 
Heartbeat CPU  3 instructions:   21000002 cycles:   21456103 heartbeat IPC: 0.97935 cumulative IPC: 0.97874 (Simulation time: 0 hr 1 min 44 sec) 
Heartbeat CPU  1 instructions:   27000003 cycles:   21473029 heartbeat IPC: 1.25713 cumulative IPC: 1.25739 (Simulation time: 0 hr 1 min 44 sec) 
Heartbeat CPU  2 instructions:   27000001 cycles:   21476562 heartbeat IPC: 1.25622 cumulative IPC: 1.25718 (Simulation time: 0 hr 1 min 44 sec) 
Heartbeat CPU  0 instructions:   35000002 cycles:   21580534 heartbeat IPC: 2.02731 cumulative IPC: 1.62183 (Simulation time: 0 hr 1 min 45 sec) 
Heartbeat CPU  0 instructions:   36000000 cycles:   22079042 heartbeat IPC: 2.00598 cumulative IPC: 1.63051 (Simulation time: 0 hr 1 min 48 sec) 
Heartbeat CPU  1 instructions:   28000000 cycles:   22268419 heartbeat IPC: 1.25724 cumulative IPC: 1.25739 (Simulation time: 0 hr 1 min 49 sec) 
Heartbeat CPU  2 instructions:   28000000 cycles:   22272596 heartbeat IPC: 1.25623 cumulative IPC: 1.25715 (Simulation time: 0 hr 1 min 49 sec) 
Heartbeat CPU  3 instructions:   22000002 cycles:   22477203 heartbeat IPC: 0.97934 cumulative IPC: 0.97877 (Simulation time: 0 hr 1 min 50 sec) 
Heartbeat CPU  0 instructions:   37000001 cycles:   22569290 heartbeat IPC: 2.03979 cumulative IPC: 1.63940 (Simulation time: 0 hr 1 min 50 sec) 
Heartbeat CPU  1 instructions:   29000000 cycles:   23063816 heartbeat IPC: 1.25723 cumulative IPC: 1.25738 (Simulation time: 0 hr 1 min 53 sec) 
Heartbeat CPU  2 instructions:   29000001 cycles:   23068592 heartbeat IPC: 1.25629 cumulative IPC: 1.25712 (Simulation time: 0 hr 1 min 53 sec) 
Heartbeat CPU  0 instructions:   38000000 cycles:   23070342 heartbeat IPC: 1.99580 cumulative IPC: 1.64714 (Simulation time: 0 hr 1 min 53 sec) 
Heartbeat CPU  3 instructions:   23000002 cycles:   23498295 heartbeat IPC: 0.97934 cumulative IPC: 0.97879 (Simulation time: 0 hr 1 min 55 sec) 
Heartbeat CPU  0 instructions:   39000002 cycles:   23702276 heartbeat IPC: 1.58245 cumulative IPC: 1.64541 (Simulation time: 0 hr 1 min 56 sec) 
Heartbeat CPU  1 instructions:   30000003 cycles:   23859192 heartbeat IPC: 1.25727 cumulative IPC: 1.25738 (Simulation time: 0 hr 1 min 57 sec) 
Heartbeat CPU  2 instructions:   30000002 cycles:   23864632 heartbeat IPC: 1.25622 cumulative IPC: 1.25709 (Simulation time: 0 hr 1 min 57 sec) 
Heartbeat CPU  0 instructions:   40000000 cycles:   24464815 heartbeat IPC: 1.31141 cumulative IPC: 1.63500 (Simulation time: 0 hr 1 min 59 sec) 
Heartbeat CPU  3 instructions:   24000000 cycles:   24519387 heartbeat IPC: 0.97934 cumulative IPC: 0.97882 (Simulation time: 0 hr 2 min 0 sec) 
Heartbeat CPU  1 instructions:   31000001 cycles:   24654291 heartbeat IPC: 1.25770 cumulative IPC: 1.25739 (Simulation time: 0 hr 2 min 0 sec) 
Heartbeat CPU  2 instructions:   31000000 cycles:   24660661 heartbeat IPC: 1.25623 cumulative IPC: 1.25706 (Simulation time: 0 hr 2 min 0 sec) 
Heartbeat CPU  0 instructions:   41000000 cycles:   25116601 heartbeat IPC: 1.53425 cumulative IPC: 1.63239 (Simulation time: 0 hr 2 min 3 sec) 
Heartbeat CPU  1 instructions:   32000000 cycles:   25449393 heartbeat IPC: 1.25770 cumulative IPC: 1.25740 (Simulation time: 0 hr 2 min 4 sec) 
Heartbeat CPU  2 instructions:   32000000 cycles:   25456680 heartbeat IPC: 1.25625 cumulative IPC: 1.25704 (Simulation time: 0 hr 2 min 4 sec) 
Heartbeat CPU  3 instructions:   25000002 cycles:   25540478 heartbeat IPC: 0.97935 cumulative IPC: 0.97884 (Simulation time: 0 hr 2 min 5 sec) 
Heartbeat CPU  0 instructions:   42000000 cycles:   25873509 heartbeat IPC: 1.32116 cumulative IPC: 1.62328 (Simulation time: 0 hr 2 min 6 sec) 
Heartbeat CPU  2 instructions:   33000000 cycles:   26254418 heartbeat IPC: 1.25354 cumulative IPC: 1.25693 (Simulation time: 0 hr 2 min 8 sec) 
Heartbeat CPU  1 instructions:   33000000 cycles:   26264613 heartbeat IPC: 1.22666 cumulative IPC: 1.25644 (Simulation time: 0 hr 2 min 8 sec) 
Heartbeat CPU  3 instructions:   26000002 cycles:   26561578 heartbeat IPC: 0.97934 cumulative IPC: 0.97886 (Simulation time: 0 hr 2 min 9 sec) 
Heartbeat CPU  0 instructions:   43000002 cycles:   26610054 heartbeat IPC: 1.35769 cumulative IPC: 1.61593 (Simulation time: 0 hr 2 min 10 sec) 
Heartbeat CPU  2 instructions:   34000000 cycles:   27050722 heartbeat IPC: 1.25580 cumulative IPC: 1.25690 (Simulation time: 0 hr 2 min 12 sec) 
Heartbeat CPU  1 instructions:   34000001 cycles:   27059751 heartbeat IPC: 1.25764 cumulative IPC: 1.25648 (Simulation time: 0 hr 2 min 12 sec) 
Heartbeat CPU  0 instructions:   44000000 cycles:   27087132 heartbeat IPC: 2.09609 cumulative IPC: 1.62439 (Simulation time: 0 hr 2 min 12 sec) 
Heartbeat CPU  0 instructions:   45000001 cycles:   27554922 heartbeat IPC: 2.13771 cumulative IPC: 1.63310 (Simulation time: 0 hr 2 min 15 sec) 
Heartbeat CPU  3 instructions:   27000002 cycles:   27582670 heartbeat IPC: 0.97934 cumulative IPC: 0.97888 (Simulation time: 0 hr 2 min 15 sec) 
Heartbeat CPU  2 instructions:   35000001 cycles:   27847032 heartbeat IPC: 1.25579 cumulative IPC: 1.25687 (Simulation time: 0 hr 2 min 17 sec) 
Heartbeat CPU  1 instructions:   35000000 cycles:   27854908 heartbeat IPC: 1.25761 cumulative IPC: 1.25651 (Simulation time: 0 hr 2 min 17 sec) 
Heartbeat CPU  0 instructions:   46000002 cycles:   28117825 heartbeat IPC: 1.77651 cumulative IPC: 1.63597 (Simulation time: 0 hr 2 min 18 sec) 
Heartbeat CPU  3 instructions:   28000000 cycles:   28603762 heartbeat IPC: 0.97934 cumulative IPC: 0.97889 (Simulation time: 0 hr 2 min 20 sec) 
Heartbeat CPU  2 instructions:   36000000 cycles:   28643364 heartbeat IPC: 1.25576 cumulative IPC: 1.25684 (Simulation time: 0 hr 2 min 20 sec) 
Heartbeat CPU  1 instructions:   36000000 cycles:   28650071 heartbeat IPC: 1.25760 cumulative IPC: 1.25654 (Simulation time: 0 hr 2 min 20 sec) 
Heartbeat CPU  0 instructions:   47000000 cycles:   29049523 heartbeat IPC: 1.07331 cumulative IPC: 1.61793 (Simulation time: 0 hr 2 min 22 sec) 
Heartbeat CPU  2 instructions:   37000000 cycles:   29439687 heartbeat IPC: 1.25577 cumulative IPC: 1.25681 (Simulation time: 0 hr 2 min 24 sec) 
Heartbeat CPU  1 instructions:   37000001 cycles:   29445131 heartbeat IPC: 1.25777 cumulative IPC: 1.25657 (Simulation time: 0 hr 2 min 24 sec) 
Heartbeat CPU  3 instructions:   29000002 cycles:   29624853 heartbeat IPC: 0.97935 cumulative IPC: 0.97891 (Simulation time: 0 hr 2 min 25 sec) 
Heartbeat CPU  0 instructions:   48000000 cycles:   29645846 heartbeat IPC: 1.67694 cumulative IPC: 1.61911 (Simulation time: 0 hr 2 min 25 sec) 
Heartbeat CPU  2 instructions:   38000003 cycles:   30235999 heartbeat IPC: 1.25579 cumulative IPC: 1.25678 (Simulation time: 0 hr 2 min 27 sec) 
Heartbeat CPU  1 instructions:   38000000 cycles:   30240273 heartbeat IPC: 1.25764 cumulative IPC: 1.25660 (Simulation time: 0 hr 2 min 27 sec) 
Heartbeat CPU  0 instructions:   49000003 cycles:   30243994 heartbeat IPC: 1.67183 cumulative IPC: 1.62016 (Simulation time: 0 hr 2 min 27 sec) 
Heartbeat CPU  3 instructions:   30000002 cycles:   30645953 heartbeat IPC: 0.97934 cumulative IPC: 0.97892 (Simulation time: 0 hr 2 min 29 sec) 
Heartbeat CPU  0 instructions:   50000002 cycles:   30839638 heartbeat IPC: 1.67885 cumulative IPC: 1.62129 (Simulation time: 0 hr 2 min 30 sec) 
Heartbeat CPU  2 instructions:   39000000 cycles:   31032308 heartbeat IPC: 1.25579 cumulative IPC: 1.25675 (Simulation time: 0 hr 2 min 31 sec) 
Heartbeat CPU  1 instructions:   39000001 cycles:   31035347 heartbeat IPC: 1.25775 cumulative IPC: 1.25663 (Simulation time: 0 hr 2 min 31 sec) 
Heartbeat CPU  0 instructions:   51000003 cycles:   31429570 heartbeat IPC: 1.69511 cumulative IPC: 0.03182 (Simulation time: 0 hr 2 min 33 sec) 
Heartbeat CPU  3 instructions:   31000002 cycles:   31667045 heartbeat IPC: 0.97934 cumulative IPC: 0.97894 (Simulation time: 0 hr 2 min 34 sec) 
Heartbeat CPU  2 instructions:   40000000 cycles:   31828644 heartbeat IPC: 1.25575 cumulative IPC: 1.25673 (Simulation time: 0 hr 2 min 35 sec) 
Heartbeat CPU  1 instructions:   40000000 cycles:   31830575 heartbeat IPC: 1.25750 cumulative IPC: 1.25665 (Simulation time: 0 hr 2 min 35 sec) 
Heartbeat CPU  0 instructions:   52000000 cycles:   32019230 heartbeat IPC: 1.69589 cumulative IPC: 0.06246 (Simulation time: 0 hr 2 min 36 sec) 
Heartbeat CPU  0 instructions:   53000000 cycles:   32610657 heartbeat IPC: 1.69083 cumulative IPC: 0.09199 (Simulation time: 0 hr 2 min 39 sec) 
Heartbeat CPU  2 instructions:   41000001 cycles:   32624961 heartbeat IPC: 1.25578 cumulative IPC: 1.25671 (Simulation time: 0 hr 2 min 39 sec) 
Heartbeat CPU  1 instructions:   41000002 cycles:   32625799 heartbeat IPC: 1.25751 cumulative IPC: 1.25667 (Simulation time: 0 hr 2 min 39 sec) 
Heartbeat CPU  3 instructions:   32000000 cycles:   32688137 heartbeat IPC: 0.97934 cumulative IPC: 0.97895 (Simulation time: 0 hr 2 min 39 sec) 
Heartbeat CPU  0 instructions:   54000001 cycles:   33206587 heartbeat IPC: 1.67805 cumulative IPC: 0.12046 (Simulation time: 0 hr 2 min 41 sec) 
Heartbeat CPU  1 instructions:   42000002 cycles:   33421145 heartbeat IPC: 1.25731 cumulative IPC: 1.25669 (Simulation time: 0 hr 2 min 42 sec) 
Heartbeat CPU  2 instructions:   42000000 cycles:   33421253 heartbeat IPC: 1.25582 cumulative IPC: 1.25669 (Simulation time: 0 hr 2 min 42 sec) 
Heartbeat CPU  3 instructions:   33000003 cycles:   33730229 heartbeat IPC: 0.95961 cumulative IPC: 0.97835 (Simulation time: 0 hr 2 min 44 sec) 
Heartbeat CPU  0 instructions:   55000000 cycles:   33804796 heartbeat IPC: 1.67165 cumulative IPC: 0.14791 (Simulation time: 0 hr 2 min 44 sec) 
Heartbeat CPU  1 instructions:   43000001 cycles:   34216434 heartbeat IPC: 1.25740 cumulative IPC: 1.25671 (Simulation time: 0 hr 2 min 46 sec) 
Heartbeat CPU  2 instructions:   43000003 cycles:   34217600 heartbeat IPC: 1.25574 cumulative IPC: 1.25666 (Simulation time: 0 hr 2 min 46 sec) 
Heartbeat CPU  0 instructions:   56000000 cycles:   34437521 heartbeat IPC: 1.58047 cumulative IPC: 0.17423 (Simulation time: 0 hr 2 min 47 sec) 
Heartbeat CPU  3 instructions:   34000003 cycles:   34883484 heartbeat IPC: 0.86711 cumulative IPC: 0.97467 (Simulation time: 0 hr 2 min 49 sec) 
Heartbeat CPU  1 instructions:   44000000 cycles:   35010147 heartbeat IPC: 1.25990 cumulative IPC: 1.25678 (Simulation time: 0 hr 2 min 50 sec) 
Heartbeat CPU  2 instructions:   44000000 cycles:   35013926 heartbeat IPC: 1.25576 cumulative IPC: 1.25664 (Simulation time: 0 hr 2 min 50 sec) 
Heartbeat CPU  0 instructions:   57000000 cycles:   35042837 heartbeat IPC: 1.65203 cumulative IPC: 0.19976 (Simulation time: 0 hr 2 min 50 sec) 
Heartbeat CPU  0 instructions:   58000003 cycles:   35690488 heartbeat IPC: 1.54405 cumulative IPC: 0.22415 (Simulation time: 0 hr 2 min 53 sec) 
Heartbeat CPU  1 instructions:   45000002 cycles:   35803939 heartbeat IPC: 1.25978 cumulative IPC: 1.25684 (Simulation time: 0 hr 2 min 54 sec) 
Heartbeat CPU  2 instructions:   45000000 cycles:   35810231 heartbeat IPC: 1.25580 cumulative IPC: 1.25662 (Simulation time: 0 hr 2 min 54 sec) 
Heartbeat CPU  3 instructions:   35000003 cycles:   36036747 heartbeat IPC: 0.86710 cumulative IPC: 0.97123 (Simulation time: 0 hr 2 min 55 sec) 
Heartbeat CPU  0 instructions:   59000003 cycles:   36348579 heartbeat IPC: 1.51955 cumulative IPC: 0.24760 (Simulation time: 0 hr 2 min 56 sec) 
Heartbeat CPU  1 instructions:   46000001 cycles:   36598231 heartbeat IPC: 1.25898 cumulative IPC: 1.25689 (Simulation time: 0 hr 2 min 58 sec) 
Heartbeat CPU  2 instructions:   46000001 cycles:   36606541 heartbeat IPC: 1.25579 cumulative IPC: 1.25661 (Simulation time: 0 hr 2 min 58 sec) 
Heartbeat CPU  0 instructions:   60000000 cycles:   37035833 heartbeat IPC: 1.45506 cumulative IPC: 0.27001 (Simulation time: 0 hr 3 min 0 sec) 
Heartbeat CPU  3 instructions:   36000000 cycles:   37189998 heartbeat IPC: 0.86711 cumulative IPC: 0.96800 (Simulation time: 0 hr 3 min 0 sec) 
Heartbeat CPU  1 instructions:   47000003 cycles:   37393340 heartbeat IPC: 1.25769 cumulative IPC: 1.25691 (Simulation time: 0 hr 3 min 1 sec) 
Heartbeat CPU  2 instructions:   47000001 cycles:   37402884 heartbeat IPC: 1.25574 cumulative IPC: 1.25659 (Simulation time: 0 hr 3 min 1 sec) 
Heartbeat CPU  0 instructions:   61000000 cycles:   37669263 heartbeat IPC: 1.57871 cumulative IPC: 0.29202 (Simulation time: 0 hr 3 min 3 sec) 
Heartbeat CPU  1 instructions:   48000000 cycles:   38188477 heartbeat IPC: 1.25764 cumulative IPC: 1.25692 (Simulation time: 0 hr 3 min 5 sec) 
Heartbeat CPU  2 instructions:   48000000 cycles:   38199211 heartbeat IPC: 1.25576 cumulative IPC: 1.25657 (Simulation time: 0 hr 3 min 5 sec) 
Heartbeat CPU  3 instructions:   37000003 cycles:   38343263 heartbeat IPC: 0.86711 cumulative IPC: 0.96497 (Simulation time: 0 hr 3 min 6 sec) 
Heartbeat CPU  0 instructions:   62000001 cycles:   38354332 heartbeat IPC: 1.45971 cumulative IPC: 0.31287 (Simulation time: 0 hr 3 min 6 sec) 
Heartbeat CPU  0 instructions:   63000000 cycles:   38832523 heartbeat IPC: 2.09121 cumulative IPC: 0.33477 (Simulation time: 0 hr 3 min 9 sec) 
Heartbeat CPU  1 instructions:   49000000 cycles:   38983680 heartbeat IPC: 1.25754 cumulative IPC: 1.25694 (Simulation time: 0 hr 3 min 10 sec) 
Heartbeat CPU  2 instructions:   49000002 cycles:   38995502 heartbeat IPC: 1.25582 cumulative IPC: 1.25656 (Simulation time: 0 hr 3 min 10 sec) 
Heartbeat CPU  0 instructions:   64000000 cycles:   39310918 heartbeat IPC: 2.09032 cumulative IPC: 0.35614 (Simulation time: 0 hr 3 min 12 sec) 
Heartbeat CPU  3 instructions:   38000003 cycles:   39496516 heartbeat IPC: 0.86711 cumulative IPC: 0.96211 (Simulation time: 0 hr 3 min 12 sec) 
Heartbeat CPU  1 instructions:   50000003 cycles:   39778897 heartbeat IPC: 1.25752 cumulative IPC: 1.25695 (Simulation time: 0 hr 3 min 14 sec) 
Heartbeat CPU  2 instructions:   50000001 cycles:   39791830 heartbeat IPC: 1.25576 cumulative IPC: 1.25654 (Simulation time: 0 hr 3 min 14 sec) 
Heartbeat CPU  0 instructions:   65000002 cycles:   40052228 heartbeat IPC: 1.34897 cumulative IPC: 0.37451 (Simulation time: 0 hr 3 min 15 sec) 
Heartbeat CPU  1 instructions:   51000000 cycles:   40574075 heartbeat IPC: 1.25758 cumulative IPC: 0.02465 (Simulation time: 0 hr 3 min 17 sec) 
Heartbeat CPU  2 instructions:   51000000 cycles:   40588163 heartbeat IPC: 1.25575 cumulative IPC: 0.02464 (Simulation time: 0 hr 3 min 17 sec) 
Heartbeat CPU  3 instructions:   39000003 cycles:   40649778 heartbeat IPC: 0.86711 cumulative IPC: 0.95941 (Simulation time: 0 hr 3 min 17 sec) 
Heartbeat CPU  0 instructions:   66000002 cycles:   40970247 heartbeat IPC: 1.08930 cumulative IPC: 0.39053 (Simulation time: 0 hr 3 min 19 sec) 
Heartbeat CPU  1 instructions:   52000000 cycles:   41369270 heartbeat IPC: 1.25755 cumulative IPC: 0.04835 (Simulation time: 0 hr 3 min 21 sec) 
Heartbeat CPU  2 instructions:   52000000 cycles:   41384473 heartbeat IPC: 1.25579 cumulative IPC: 0.04833 (Simulation time: 0 hr 3 min 21 sec) 
Heartbeat CPU  0 instructions:   67000001 cycles:   41506399 heartbeat IPC: 1.86514 cumulative IPC: 0.40958 (Simulation time: 0 hr 3 min 21 sec) 
Heartbeat CPU  3 instructions:   40000000 cycles:   41803030 heartbeat IPC: 0.86711 cumulative IPC: 0.95687 (Simulation time: 0 hr 3 min 23 sec) 
Heartbeat CPU  2 instructions:   53000001 cycles:   42180669 heartbeat IPC: 1.25597 cumulative IPC: 0.07112 (Simulation time: 0 hr 3 min 24 sec) 
Heartbeat CPU  1 instructions:   53000000 cycles:   42207463 heartbeat IPC: 1.19304 cumulative IPC: 0.07108 (Simulation time: 0 hr 3 min 24 sec) 
Heartbeat CPU  0 instructions:   68000000 cycles:   42291636 heartbeat IPC: 1.27350 cumulative IPC: 0.42562 (Simulation time: 0 hr 3 min 25 sec) 
Heartbeat CPU  3 instructions:   41000002 cycles:   42956293 heartbeat IPC: 0.86711 cumulative IPC: 0.95446 (Simulation time: 0 hr 3 min 27 sec) 
Heartbeat CPU  2 instructions:   54000000 cycles:   42976061 heartbeat IPC: 1.25724 cumulative IPC: 0.09308 (Simulation time: 0 hr 3 min 27 sec) 
Heartbeat CPU  0 instructions:   69000000 cycles:   43154559 heartbeat IPC: 1.15885 cumulative IPC: 0.44028 (Simulation time: 0 hr 3 min 28 sec) 
Heartbeat CPU  1 instructions:   54000000 cycles:   43192242 heartbeat IPC: 1.01546 cumulative IPC: 0.09261 (Simulation time: 0 hr 3 min 28 sec) 
Heartbeat CPU  2 instructions:   55000000 cycles:   43771433 heartbeat IPC: 1.25727 cumulative IPC: 0.11423 (Simulation time: 0 hr 3 min 31 sec) 
Heartbeat CPU  0 instructions:   70000002 cycles:   43956079 heartbeat IPC: 1.24763 cumulative IPC: 0.45500 (Simulation time: 0 hr 3 min 31 sec) 
Heartbeat CPU  3 instructions:   42000003 cycles:   44109548 heartbeat IPC: 0.86711 cumulative IPC: 0.95217 (Simulation time: 0 hr 3 min 32 sec) 
Heartbeat CPU  1 instructions:   55000000 cycles:   44177102 heartbeat IPC: 1.01537 cumulative IPC: 0.11318 (Simulation time: 0 hr 3 min 32 sec) 
Heartbeat CPU  2 instructions:   56000000 cycles:   44566778 heartbeat IPC: 1.25732 cumulative IPC: 0.13463 (Simulation time: 0 hr 3 min 34 sec) 
Heartbeat CPU  0 instructions:   71000000 cycles:   44641294 heartbeat IPC: 1.45939 cumulative IPC: 0.47042 (Simulation time: 0 hr 3 min 34 sec) 
Heartbeat CPU  1 instructions:   56000000 cycles:   45162002 heartbeat IPC: 1.01533 cumulative IPC: 0.13286 (Simulation time: 0 hr 3 min 37 sec) 
Heartbeat CPU  0 instructions:   72000000 cycles:   45174273 heartbeat IPC: 1.87625 cumulative IPC: 0.48700 (Simulation time: 0 hr 3 min 37 sec) 
Heartbeat CPU  3 instructions:   43000003 cycles:   45262810 heartbeat IPC: 0.86711 cumulative IPC: 0.95001 (Simulation time: 0 hr 3 min 37 sec) 
Heartbeat CPU  2 instructions:   57000000 cycles:   45362172 heartbeat IPC: 1.25724 cumulative IPC: 0.15431 (Simulation time: 0 hr 3 min 38 sec) 
Heartbeat CPU  0 instructions:   73000003 cycles:   45713171 heartbeat IPC: 1.85564 cumulative IPC: 0.50314 (Simulation time: 0 hr 3 min 40 sec) 
Heartbeat CPU  1 instructions:   57000001 cycles:   46146806 heartbeat IPC: 1.01543 cumulative IPC: 0.15169 (Simulation time: 0 hr 3 min 42 sec) 
Heartbeat CPU  2 instructions:   58000000 cycles:   46157554 heartbeat IPC: 1.25726 cumulative IPC: 0.17332 (Simulation time: 0 hr 3 min 42 sec) 
Heartbeat CPU  0 instructions:   74000002 cycles:   46249776 heartbeat IPC: 1.86357 cumulative IPC: 0.51892 (Simulation time: 0 hr 3 min 42 sec) 
Heartbeat CPU  3 instructions:   44000000 cycles:   46416064 heartbeat IPC: 0.86711 cumulative IPC: 0.94795 (Simulation time: 0 hr 3 min 43 sec) 
Heartbeat CPU  0 instructions:   75000003 cycles:   46783288 heartbeat IPC: 1.87437 cumulative IPC: 0.53438 (Simulation time: 0 hr 3 min 45 sec) 
Heartbeat CPU  2 instructions:   59000001 cycles:   46952909 heartbeat IPC: 1.25730 cumulative IPC: 0.19168 (Simulation time: 0 hr 3 min 46 sec) 
Heartbeat CPU  1 instructions:   58000002 cycles:   47131600 heartbeat IPC: 1.01544 cumulative IPC: 0.16974 (Simulation time: 0 hr 3 min 46 sec) 
Heartbeat CPU  0 instructions:   76000000 cycles:   47323833 heartbeat IPC: 1.84998 cumulative IPC: 0.54941 (Simulation time: 0 hr 3 min 47 sec) 
Heartbeat CPU  3 instructions:   45000003 cycles:   47569328 heartbeat IPC: 0.86711 cumulative IPC: 0.94599 (Simulation time: 0 hr 3 min 49 sec) 
Heartbeat CPU  2 instructions:   60000000 cycles:   47748267 heartbeat IPC: 1.25729 cumulative IPC: 0.20943 (Simulation time: 0 hr 3 min 49 sec) 
Heartbeat CPU  0 instructions:   77000000 cycles:   47857146 heartbeat IPC: 1.87507 cumulative IPC: 0.56418 (Simulation time: 0 hr 3 min 50 sec) 
Heartbeat CPU  1 instructions:   59000001 cycles:   48116567 heartbeat IPC: 1.01526 cumulative IPC: 0.18705 (Simulation time: 0 hr 3 min 51 sec) 
Heartbeat CPU  0 instructions:   78000003 cycles:   48378030 heartbeat IPC: 1.91982 cumulative IPC: 0.57878 (Simulation time: 0 hr 3 min 52 sec) 
Heartbeat CPU  2 instructions:   61000001 cycles:   48543546 heartbeat IPC: 1.25742 cumulative IPC: 0.22660 (Simulation time: 0 hr 3 min 53 sec) 
Heartbeat CPU  3 instructions:   46000003 cycles:   48722582 heartbeat IPC: 0.86711 cumulative IPC: 0.94412 (Simulation time: 0 hr 3 min 54 sec) 
Heartbeat CPU  0 instructions:   79000002 cycles:   48910834 heartbeat IPC: 1.87686 cumulative IPC: 0.59292 (Simulation time: 0 hr 3 min 55 sec) 
Heartbeat CPU  1 instructions:   60000000 cycles:   49101585 heartbeat IPC: 1.01521 cumulative IPC: 0.20366 (Simulation time: 0 hr 3 min 56 sec) 
Heartbeat CPU  2 instructions:   62000001 cycles:   49338763 heartbeat IPC: 1.25752 cumulative IPC: 0.24322 (Simulation time: 0 hr 3 min 57 sec) 
Heartbeat CPU  0 instructions:   80000000 cycles:   49438181 heartbeat IPC: 1.89628 cumulative IPC: 0.60682 (Simulation time: 0 hr 3 min 58 sec) 
Heartbeat CPU  3 instructions:   47000003 cycles:   49875842 heartbeat IPC: 0.86711 cumulative IPC: 0.94234 (Simulation time: 0 hr 4 min 0 sec) 
Heartbeat CPU  1 instructions:   61000000 cycles:   49941092 heartbeat IPC: 1.19118 cumulative IPC: 0.22026 (Simulation time: 0 hr 4 min 0 sec) 
Heartbeat CPU  0 instructions:   81000000 cycles:   49966437 heartbeat IPC: 1.89302 cumulative IPC: 0.62042 (Simulation time: 0 hr 4 min 0 sec) 
Heartbeat CPU  2 instructions:   63000000 cycles:   50133956 heartbeat IPC: 1.25756 cumulative IPC: 0.25931 (Simulation time: 0 hr 4 min 1 sec) 
Heartbeat CPU  0 instructions:   82000000 cycles:   50501380 heartbeat IPC: 1.86936 cumulative IPC: 0.63365 (Simulation time: 0 hr 4 min 3 sec) 
Heartbeat CPU  1 instructions:   62000001 cycles:   50728774 heartbeat IPC: 1.26955 cumulative IPC: 0.23655 (Simulation time: 0 hr 4 min 4 sec) 
Heartbeat CPU  2 instructions:   64000000 cycles:   50929154 heartbeat IPC: 1.25755 cumulative IPC: 0.27489 (Simulation time: 0 hr 4 min 5 sec) 
Heartbeat CPU  3 instructions:   48000000 cycles:   51029096 heartbeat IPC: 0.86711 cumulative IPC: 0.94064 (Simulation time: 0 hr 4 min 6 sec) 
Heartbeat CPU  0 instructions:   83000001 cycles:   51033226 heartbeat IPC: 1.88025 cumulative IPC: 0.64664 (Simulation time: 0 hr 4 min 6 sec) 
Heartbeat CPU  1 instructions:   63000002 cycles:   51516509 heartbeat IPC: 1.26946 cumulative IPC: 0.25235 (Simulation time: 0 hr 4 min 8 sec) 
Heartbeat CPU  0 instructions:   84000000 cycles:   51559392 heartbeat IPC: 1.90054 cumulative IPC: 0.65943 (Simulation time: 0 hr 4 min 8 sec) 
Heartbeat CPU  2 instructions:   65000003 cycles:   51724377 heartbeat IPC: 1.25751 cumulative IPC: 0.29000 (Simulation time: 0 hr 4 min 9 sec) 
Heartbeat CPU  0 instructions:   85000003 cycles:   52100885 heartbeat IPC: 1.84675 cumulative IPC: 0.67177 (Simulation time: 0 hr 4 min 11 sec) 
Heartbeat CPU  3 instructions:   49000003 cycles:   52182358 heartbeat IPC: 0.86711 cumulative IPC: 0.93901 (Simulation time: 0 hr 4 min 12 sec) 
Heartbeat CPU  1 instructions:   64000000 cycles:   52304285 heartbeat IPC: 1.26939 cumulative IPC: 0.26766 (Simulation time: 0 hr 4 min 12 sec) 
Heartbeat CPU  2 instructions:   66000001 cycles:   52519564 heartbeat IPC: 1.25756 cumulative IPC: 0.30465 (Simulation time: 0 hr 4 min 13 sec) 
Heartbeat CPU  0 instructions:   86000002 cycles:   52643596 heartbeat IPC: 1.84260 cumulative IPC: 0.68384 (Simulation time: 0 hr 4 min 14 sec) 
Heartbeat CPU  1 instructions:   65000003 cycles:   53091831 heartbeat IPC: 1.26977 cumulative IPC: 0.28253 (Simulation time: 0 hr 4 min 16 sec) 
Heartbeat CPU  0 instructions:   87000002 cycles:   53175904 heartbeat IPC: 1.87861 cumulative IPC: 0.69580 (Simulation time: 0 hr 4 min 17 sec) 
Heartbeat CPU  2 instructions:   67000000 cycles:   53314762 heartbeat IPC: 1.25755 cumulative IPC: 0.31886 (Simulation time: 0 hr 4 min 17 sec) 
Heartbeat CPU  3 instructions:   50000003 cycles:   53335616 heartbeat IPC: 0.86711 cumulative IPC: 0.93746 (Simulation time: 0 hr 4 min 17 sec) 

Warmup complete CPU  0 instructions:   87299619 cycles:   53335616 (Simulation time: 0 hr 4 min 17 sec) 
Warmup complete CPU  1 instructions:   65309547 cycles:   53335616 (Simulation time: 0 hr 4 min 17 sec) 
Warmup complete CPU  2 instructions:   67026179 cycles:   53335616 (Simulation time: 0 hr 4 min 17 sec) 
Warmup complete CPU  3 instructions:   50000003 cycles:   53335616 (Simulation time: 0 hr 4 min 17 sec) 

Heartbeat CPU  1 instructions:   66000002 cycles:   54202071 heartbeat IPC: 0.90071 cumulative IPC: 0.79687 (Simulation time: 0 hr 4 min 21 sec) 
Heartbeat CPU  2 instructions:   68000000 cycles:   54480440 heartbeat IPC: 0.85787 cumulative IPC: 0.85063 (Simulation time: 0 hr 4 min 22 sec) 
Heartbeat CPU  0 instructions:   88000000 cycles:   54715923 heartbeat IPC: 0.64934 cumulative IPC: 0.50741 (Simulation time: 0 hr 4 min 23 sec) 
Heartbeat CPU  1 instructions:   67000000 cycles:   55457033 heartbeat IPC: 0.79684 cumulative IPC: 0.79685 (Simulation time: 0 hr 4 min 25 sec) 
Heartbeat CPU  3 instructions:   51000002 cycles:   55640642 heartbeat IPC: 0.43383 cumulative IPC: 0.43383 (Simulation time: 0 hr 4 min 26 sec) 
Heartbeat CPU  2 instructions:   69000000 cycles:   55656112 heartbeat IPC: 0.85058 cumulative IPC: 0.85060 (Simulation time: 0 hr 4 min 26 sec) 
Heartbeat CPU  1 instructions:   68000000 cycles:   56712338 heartbeat IPC: 0.79662 cumulative IPC: 0.79676 (Simulation time: 0 hr 4 min 30 sec) 
Heartbeat CPU  0 instructions:   89000002 cycles:   56820950 heartbeat IPC: 0.47505 cumulative IPC: 0.48787 (Simulation time: 0 hr 4 min 30 sec) 
Heartbeat CPU  2 instructions:   70000001 cycles:   56831716 heartbeat IPC: 0.85063 cumulative IPC: 0.85061 (Simulation time: 0 hr 4 min 30 sec) 
Heartbeat CPU  3 instructions:   52000000 cycles:   57945729 heartbeat IPC: 0.43382 cumulative IPC: 0.43383 (Simulation time: 0 hr 4 min 34 sec) 
Heartbeat CPU  1 instructions:   69000000 cycles:   57967440 heartbeat IPC: 0.79675 cumulative IPC: 0.79676 (Simulation time: 0 hr 4 min 34 sec) 
Heartbeat CPU  2 instructions:   71000000 cycles:   58007332 heartbeat IPC: 0.85062 cumulative IPC: 0.85061 (Simulation time: 0 hr 4 min 34 sec) 
Heartbeat CPU  2 instructions:   72000000 cycles:   59182987 heartbeat IPC: 0.85059 cumulative IPC: 0.85061 (Simulation time: 0 hr 4 min 38 sec) 
Heartbeat CPU  1 instructions:   70000000 cycles:   59222518 heartbeat IPC: 0.79676 cumulative IPC: 0.79676 (Simulation time: 0 hr 4 min 39 sec) 
Heartbeat CPU  0 instructions:   90000001 cycles:   59300449 heartbeat IPC: 0.40331 cumulative IPC: 0.45272 (Simulation time: 0 hr 4 min 39 sec) 
Heartbeat CPU  3 instructions:   53000003 cycles:   60271922 heartbeat IPC: 0.42989 cumulative IPC: 0.43251 (Simulation time: 0 hr 4 min 42 sec) 
Heartbeat CPU  2 instructions:   73000000 cycles:   60366158 heartbeat IPC: 0.84519 cumulative IPC: 0.84970 (Simulation time: 0 hr 4 min 43 sec) 
Heartbeat CPU  1 instructions:   71000000 cycles:   60483452 heartbeat IPC: 0.79306 cumulative IPC: 0.79611 (Simulation time: 0 hr 4 min 43 sec) 
Heartbeat CPU  2 instructions:   74000000 cycles:   61558696 heartbeat IPC: 0.83855 cumulative IPC: 0.84808 (Simulation time: 0 hr 4 min 47 sec) 
Heartbeat CPU  1 instructions:   72000000 cycles:   61747462 heartbeat IPC: 0.79113 cumulative IPC: 0.79536 (Simulation time: 0 hr 4 min 47 sec) 
Heartbeat CPU  0 instructions:   91000001 cycles:   62275221 heartbeat IPC: 0.33616 cumulative IPC: 0.41393 (Simulation time: 0 hr 4 min 49 sec) 
Heartbeat CPU  3 instructions:   54000003 cycles:   62558296 heartbeat IPC: 0.43737 cumulative IPC: 0.43371 (Simulation time: 0 hr 4 min 50 sec) 
Heartbeat CPU  2 instructions:   75000002 cycles:   62751397 heartbeat IPC: 0.83843 cumulative IPC: 0.84686 (Simulation time: 0 hr 4 min 51 sec) 
Heartbeat CPU  1 instructions:   73000002 cycles:   63033336 heartbeat IPC: 0.77768 cumulative IPC: 0.79302 (Simulation time: 0 hr 4 min 52 sec) 
Heartbeat CPU  2 instructions:   76000000 cycles:   63944101 heartbeat IPC: 0.83843 cumulative IPC: 0.84591 (Simulation time: 0 hr 4 min 55 sec) 
Heartbeat CPU  1 instructions:   74000000 cycles:   64298400 heartbeat IPC: 0.79047 cumulative IPC: 0.79272 (Simulation time: 0 hr 4 min 56 sec) 
Heartbeat CPU  0 instructions:   92000000 cycles:   64523404 heartbeat IPC: 0.44480 cumulative IPC: 0.42013 (Simulation time: 0 hr 4 min 57 sec) 
Heartbeat CPU  3 instructions:   55000003 cycles:   64844676 heartbeat IPC: 0.43737 cumulative IPC: 0.43444 (Simulation time: 0 hr 4 min 58 sec) 
Heartbeat CPU  2 instructions:   77000000 cycles:   65136784 heartbeat IPC: 0.83845 cumulative IPC: 0.84516 (Simulation time: 0 hr 5 min 0 sec) 
Heartbeat CPU  1 instructions:   75000000 cycles:   65563676 heartbeat IPC: 0.79034 cumulative IPC: 0.79248 (Simulation time: 0 hr 5 min 1 sec) 
Heartbeat CPU  0 instructions:   93000000 cycles:   65821831 heartbeat IPC: 0.77016 cumulative IPC: 0.45653 (Simulation time: 0 hr 5 min 2 sec) 
Heartbeat CPU  2 instructions:   78000002 cycles:   66329400 heartbeat IPC: 0.83849 cumulative IPC: 0.84454 (Simulation time: 0 hr 5 min 4 sec) 
Heartbeat CPU  1 instructions:   76000000 cycles:   66829271 heartbeat IPC: 0.79014 cumulative IPC: 0.79226 (Simulation time: 0 hr 5 min 6 sec) 
Heartbeat CPU  3 instructions:   56000000 cycles:   67131025 heartbeat IPC: 0.43738 cumulative IPC: 0.43493 (Simulation time: 0 hr 5 min 7 sec) 
Heartbeat CPU  0 instructions:   94000000 cycles:   67335042 heartbeat IPC: 0.66085 cumulative IPC: 0.47862 (Simulation time: 0 hr 5 min 8 sec) 
Heartbeat CPU  2 instructions:   79000000 cycles:   67522079 heartbeat IPC: 0.83845 cumulative IPC: 0.84403 (Simulation time: 0 hr 5 min 9 sec) 
Heartbeat CPU  1 instructions:   77000000 cycles:   68094302 heartbeat IPC: 0.79049 cumulative IPC: 0.79211 (Simulation time: 0 hr 5 min 11 sec) 
Heartbeat CPU  2 instructions:   80000000 cycles:   68714769 heartbeat IPC: 0.83844 cumulative IPC: 0.84360 (Simulation time: 0 hr 5 min 14 sec) 
Heartbeat CPU  0 instructions:   95000003 cycles:   69032167 heartbeat IPC: 0.58923 cumulative IPC: 0.49058 (Simulation time: 0 hr 5 min 15 sec) 
Heartbeat CPU  1 instructions:   78000001 cycles:   69359109 heartbeat IPC: 0.79064 cumulative IPC: 0.79199 (Simulation time: 0 hr 5 min 17 sec) 
Heartbeat CPU  3 instructions:   57000003 cycles:   69417424 heartbeat IPC: 0.43737 cumulative IPC: 0.43527 (Simulation time: 0 hr 5 min 17 sec) 
Heartbeat CPU  2 instructions:   81000000 cycles:   69907410 heartbeat IPC: 0.83848 cumulative IPC: 0.84323 (Simulation time: 0 hr 5 min 19 sec) 
Heartbeat CPU  1 instructions:   79000000 cycles:   70624723 heartbeat IPC: 0.79013 cumulative IPC: 0.79185 (Simulation time: 0 hr 5 min 23 sec) 
Heartbeat CPU  0 instructions:   96000000 cycles:   70943342 heartbeat IPC: 0.52324 cumulative IPC: 0.49412 (Simulation time: 0 hr 5 min 24 sec) 
Heartbeat CPU  2 instructions:   82000000 cycles:   71100051 heartbeat IPC: 0.83848 cumulative IPC: 0.84291 (Simulation time: 0 hr 5 min 25 sec) 
Heartbeat CPU  3 instructions:   58000003 cycles:   71703806 heartbeat IPC: 0.43737 cumulative IPC: 0.43554 (Simulation time: 0 hr 5 min 28 sec) 
Heartbeat CPU  1 instructions:   80000000 cycles:   71889394 heartbeat IPC: 0.79072 cumulative IPC: 0.79178 (Simulation time: 0 hr 5 min 29 sec) 
Heartbeat CPU  2 instructions:   83000000 cycles:   72292695 heartbeat IPC: 0.83847 cumulative IPC: 0.84263 (Simulation time: 0 hr 5 min 31 sec) 
Heartbeat CPU  1 instructions:   81000002 cycles:   73153708 heartbeat IPC: 0.79094 cumulative IPC: 0.79172 (Simulation time: 0 hr 5 min 34 sec) 
Heartbeat CPU  0 instructions:   97000003 cycles:   73226136 heartbeat IPC: 0.43806 cumulative IPC: 0.48769 (Simulation time: 0 hr 5 min 34 sec) 
Heartbeat CPU  2 instructions:   84000000 cycles:   73485340 heartbeat IPC: 0.83847 cumulative IPC: 0.84238 (Simulation time: 0 hr 5 min 35 sec) 
Heartbeat CPU  3 instructions:   59000003 cycles:   73990179 heartbeat IPC: 0.43737 cumulative IPC: 0.43574 (Simulation time: 0 hr 5 min 36 sec) 
Heartbeat CPU  1 instructions:   82000003 cycles:   74418511 heartbeat IPC: 0.79064 cumulative IPC: 0.79166 (Simulation time: 0 hr 5 min 38 sec) 
Heartbeat CPU  2 instructions:   85000000 cycles:   74677943 heartbeat IPC: 0.83850 cumulative IPC: 0.84217 (Simulation time: 0 hr 5 min 39 sec) 
Heartbeat CPU  0 instructions:   98000000 cycles:   75682216 heartbeat IPC: 0.40715 cumulative IPC: 0.47884 (Simulation time: 0 hr 5 min 43 sec) 
Heartbeat CPU  1 instructions:   83000002 cycles:   75683144 heartbeat IPC: 0.79074 cumulative IPC: 0.79161 (Simulation time: 0 hr 5 min 43 sec) 
Heartbeat CPU  2 instructions:   86000001 cycles:   75870647 heartbeat IPC: 0.83843 cumulative IPC: 0.84197 (Simulation time: 0 hr 5 min 43 sec) 
Heartbeat CPU  3 instructions:   60000000 cycles:   76276545 heartbeat IPC: 0.43737 cumulative IPC: 0.43590 (Simulation time: 0 hr 5 min 45 sec) 
Heartbeat CPU  1 instructions:   84000000 cycles:   76948308 heartbeat IPC: 0.79041 cumulative IPC: 0.79154 (Simulation time: 0 hr 5 min 47 sec) 
Heartbeat CPU  2 instructions:   87000002 cycles:   77063303 heartbeat IPC: 0.83847 cumulative IPC: 0.84179 (Simulation time: 0 hr 5 min 47 sec) 
Heartbeat CPU  0 instructions:   99000002 cycles:   77743959 heartbeat IPC: 0.48503 cumulative IPC: 0.47936 (Simulation time: 0 hr 5 min 50 sec) 
Heartbeat CPU  1 instructions:   85000003 cycles:   78213319 heartbeat IPC: 0.79051 cumulative IPC: 0.79149 (Simulation time: 0 hr 5 min 52 sec) 
Heartbeat CPU  2 instructions:   88000000 cycles:   78255974 heartbeat IPC: 0.83845 cumulative IPC: 0.84163 (Simulation time: 0 hr 5 min 52 sec) 
Heartbeat CPU  3 instructions:   61000003 cycles:   78530763 heartbeat IPC: 0.44361 cumulative IPC: 0.43659 (Simulation time: 0 hr 5 min 53 sec) 
Heartbeat CPU  2 instructions:   89000000 cycles:   79448613 heartbeat IPC: 0.83848 cumulative IPC: 0.84149 (Simulation time: 0 hr 5 min 56 sec) 
Heartbeat CPU  1 instructions:   86000002 cycles:   79477221 heartbeat IPC: 0.79120 cumulative IPC: 0.79148 (Simulation time: 0 hr 5 min 56 sec) 
*** Reached end of trace for Core: 0 Repeating trace: /pref/Pythia/NUTCH/traces/nutch_phase2_core0.trace.xz
Heartbeat CPU  0 instructions:  100000000 cycles:   79787742 heartbeat IPC: 0.48929 cumulative IPC: 0.48013 (Simulation time: 0 hr 5 min 57 sec) 
Heartbeat CPU  2 instructions:   90000002 cycles:   80641232 heartbeat IPC: 0.83849 cumulative IPC: 0.84136 (Simulation time: 0 hr 6 min 1 sec) 
Heartbeat CPU  1 instructions:   87000000 cycles:   80742210 heartbeat IPC: 0.79052 cumulative IPC: 0.79143 (Simulation time: 0 hr 6 min 1 sec) 
Heartbeat CPU  3 instructions:   62000003 cycles:   80774351 heartbeat IPC: 0.44571 cumulative IPC: 0.43734 (Simulation time: 0 hr 6 min 1 sec) 
Heartbeat CPU  0 instructions:  101000001 cycles:   81018834 heartbeat IPC: 0.81229 cumulative IPC: 0.49490 (Simulation time: 0 hr 6 min 2 sec) 
Heartbeat CPU  2 instructions:   91000000 cycles:   81833887 heartbeat IPC: 0.83846 cumulative IPC: 0.84124 (Simulation time: 0 hr 6 min 6 sec) 
Heartbeat CPU  1 instructions:   88000000 cycles:   82006884 heartbeat IPC: 0.79072 cumulative IPC: 0.79140 (Simulation time: 0 hr 6 min 7 sec) 
Heartbeat CPU  0 instructions:  102000000 cycles:   82201065 heartbeat IPC: 0.84586 cumulative IPC: 0.50927 (Simulation time: 0 hr 6 min 8 sec) 
Heartbeat CPU  3 instructions:   63000003 cycles:   83018139 heartbeat IPC: 0.44567 cumulative IPC: 0.43797 (Simulation time: 0 hr 6 min 11 sec) 
Heartbeat CPU  2 instructions:   92000000 cycles:   83026456 heartbeat IPC: 0.83853 cumulative IPC: 0.84113 (Simulation time: 0 hr 6 min 11 sec) 
Heartbeat CPU  1 instructions:   89000001 cycles:   83271270 heartbeat IPC: 0.79090 cumulative IPC: 0.79138 (Simulation time: 0 hr 6 min 12 sec) 
Heartbeat CPU  0 instructions:  103000001 cycles:   83946629 heartbeat IPC: 0.57288 cumulative IPC: 0.51290 (Simulation time: 0 hr 6 min 15 sec) 
Heartbeat CPU  2 instructions:   93000003 cycles:   84221526 heartbeat IPC: 0.83677 cumulative IPC: 0.84096 (Simulation time: 0 hr 6 min 16 sec) 
Heartbeat CPU  1 instructions:   90000000 cycles:   84536199 heartbeat IPC: 0.79056 cumulative IPC: 0.79135 (Simulation time: 0 hr 6 min 17 sec) 
Heartbeat CPU  3 instructions:   64000000 cycles:   85261824 heartbeat IPC: 0.44569 cumulative IPC: 0.43851 (Simulation time: 0 hr 6 min 20 sec) 
Heartbeat CPU  2 instructions:   94000000 cycles:   85398952 heartbeat IPC: 0.84931 cumulative IPC: 0.84127 (Simulation time: 0 hr 6 min 21 sec) 
Heartbeat CPU  0 instructions:  104000000 cycles:   85588765 heartbeat IPC: 0.60896 cumulative IPC: 0.51779 (Simulation time: 0 hr 6 min 21 sec) 
Heartbeat CPU  1 instructions:   91000002 cycles:   85799529 heartbeat IPC: 0.79156 cumulative IPC: 0.79135 (Simulation time: 0 hr 6 min 22 sec) 
Heartbeat CPU  2 instructions:   95000003 cycles:   86576374 heartbeat IPC: 0.84932 cumulative IPC: 0.84155 (Simulation time: 0 hr 6 min 26 sec) 
Heartbeat CPU  1 instructions:   92000000 cycles:   87058167 heartbeat IPC: 0.79451 cumulative IPC: 0.79147 (Simulation time: 0 hr 6 min 28 sec) 
Heartbeat CPU  0 instructions:  105000000 cycles:   87309898 heartbeat IPC: 0.58101 cumulative IPC: 0.52099 (Simulation time: 0 hr 6 min 29 sec) 
Heartbeat CPU  3 instructions:   65000003 cycles:   87505584 heartbeat IPC: 0.44568 cumulative IPC: 0.43898 (Simulation time: 0 hr 6 min 29 sec) 
Heartbeat CPU  2 instructions:   96000000 cycles:   87753876 heartbeat IPC: 0.84925 cumulative IPC: 0.84182 (Simulation time: 0 hr 6 min 30 sec) 
Heartbeat CPU  1 instructions:   93000001 cycles:   88317725 heartbeat IPC: 0.79393 cumulative IPC: 0.79156 (Simulation time: 0 hr 6 min 33 sec) 
Heartbeat CPU  2 instructions:   97000000 cycles:   88932133 heartbeat IPC: 0.84871 cumulative IPC: 0.84204 (Simulation time: 0 hr 6 min 35 sec) 
Heartbeat CPU  1 instructions:   94000002 cycles:   89575842 heartbeat IPC: 0.79484 cumulative IPC: 0.79167 (Simulation time: 0 hr 6 min 37 sec) 
Heartbeat CPU  3 instructions:   66000003 cycles:   89749220 heartbeat IPC: 0.44571 cumulative IPC: 0.43940 (Simulation time: 0 hr 6 min 38 sec) 
Heartbeat CPU  0 instructions:  106000002 cycles:   89776443 heartbeat IPC: 0.40543 cumulative IPC: 0.51317 (Simulation time: 0 hr 6 min 38 sec) 
Heartbeat CPU  2 instructions:   98000001 cycles:   90110262 heartbeat IPC: 0.84880 cumulative IPC: 0.84226 (Simulation time: 0 hr 6 min 39 sec) 
Heartbeat CPU  1 instructions:   95000001 cycles:   90835236 heartbeat IPC: 0.79403 cumulative IPC: 0.79175 (Simulation time: 0 hr 6 min 41 sec) 
Heartbeat CPU  2 instructions:   99000001 cycles:   91288483 heartbeat IPC: 0.84874 cumulative IPC: 0.84246 (Simulation time: 0 hr 6 min 43 sec) 
Heartbeat CPU  3 instructions:   67000003 cycles:   91992995 heartbeat IPC: 0.44568 cumulative IPC: 0.43976 (Simulation time: 0 hr 6 min 46 sec) 
Heartbeat CPU  1 instructions:   96000000 cycles:   92095092 heartbeat IPC: 0.79374 cumulative IPC: 0.79182 (Simulation time: 0 hr 6 min 46 sec) 
*** Reached end of trace for Core: 2 Repeating trace: /pref/Pythia/NUTCH/traces/nutch_phase2_core2.trace.xz
Heartbeat CPU  2 instructions:  100000000 cycles:   92467411 heartbeat IPC: 0.84823 cumulative IPC: 0.84264 (Simulation time: 0 hr 6 min 47 sec) 
Heartbeat CPU  0 instructions:  107000002 cycles:   92473446 heartbeat IPC: 0.37078 cumulative IPC: 0.50336 (Simulation time: 0 hr 6 min 47 sec) 
Heartbeat CPU  1 instructions:   97000000 cycles:   93351718 heartbeat IPC: 0.79578 cumulative IPC: 0.79194 (Simulation time: 0 hr 6 min 51 sec) 
Heartbeat CPU  2 instructions:  101000003 cycles:   93643213 heartbeat IPC: 0.85049 cumulative IPC: 0.84286 (Simulation time: 0 hr 6 min 52 sec) 
Heartbeat CPU  3 instructions:   68000000 cycles:   94236659 heartbeat IPC: 0.44570 cumulative IPC: 0.44009 (Simulation time: 0 hr 6 min 54 sec) 
Heartbeat CPU  1 instructions:   98000003 cycles:   94607047 heartbeat IPC: 0.79661 cumulative IPC: 0.79208 (Simulation time: 0 hr 6 min 55 sec) 
Heartbeat CPU  0 instructions:  108000000 cycles:   94657000 heartbeat IPC: 0.45797 cumulative IPC: 0.50096 (Simulation time: 0 hr 6 min 55 sec) 
Heartbeat CPU  2 instructions:  102000002 cycles:   94818980 heartbeat IPC: 0.85051 cumulative IPC: 0.84308 (Simulation time: 0 hr 6 min 56 sec) 
Heartbeat CPU  1 instructions:   99000001 cycles:   95862565 heartbeat IPC: 0.79648 cumulative IPC: 0.79221 (Simulation time: 0 hr 7 min 0 sec) 
Heartbeat CPU  2 instructions:  103000002 cycles:   95994772 heartbeat IPC: 0.85049 cumulative IPC: 0.84328 (Simulation time: 0 hr 7 min 0 sec) 
Heartbeat CPU  3 instructions:   69000003 cycles:   96480363 heartbeat IPC: 0.44569 cumulative IPC: 0.44038 (Simulation time: 0 hr 7 min 2 sec) 
*** Reached end of trace for Core: 1 Repeating trace: /pref/Pythia/NUTCH/traces/nutch_phase2_core1.trace.xz
Heartbeat CPU  1 instructions:  100000000 cycles:   97126558 heartbeat IPC: 0.79114 cumulative IPC: 0.79218 (Simulation time: 0 hr 7 min 4 sec) 
Heartbeat CPU  2 instructions:  104000000 cycles:   97170637 heartbeat IPC: 0.85044 cumulative IPC: 0.84348 (Simulation time: 0 hr 7 min 4 sec) 
Heartbeat CPU  0 instructions:  109000000 cycles:   97731585 heartbeat IPC: 0.32525 cumulative IPC: 0.48879 (Simulation time: 0 hr 7 min 6 sec) 
Heartbeat CPU  2 instructions:  105000000 cycles:   98346422 heartbeat IPC: 0.85050 cumulative IPC: 0.84366 (Simulation time: 0 hr 7 min 8 sec) 
Heartbeat CPU  1 instructions:  101000002 cycles:   98381376 heartbeat IPC: 0.79693 cumulative IPC: 0.79232 (Simulation time: 0 hr 7 min 8 sec) 
Heartbeat CPU  3 instructions:   70000003 cycles:   98724085 heartbeat IPC: 0.44569 cumulative IPC: 0.44064 (Simulation time: 0 hr 7 min 9 sec) 
Heartbeat CPU  2 instructions:  106000000 cycles:   99522231 heartbeat IPC: 0.85048 cumulative IPC: 0.84383 (Simulation time: 0 hr 7 min 12 sec) 
Heartbeat CPU  1 instructions:  102000000 cycles:   99635876 heartbeat IPC: 0.79713 cumulative IPC: 0.79245 (Simulation time: 0 hr 7 min 12 sec) 
Heartbeat CPU  2 instructions:  107000000 cycles:  100698029 heartbeat IPC: 0.85049 cumulative IPC: 0.84400 (Simulation time: 0 hr 7 min 16 sec) 
Heartbeat CPU  1 instructions:  103000000 cycles:  100891981 heartbeat IPC: 0.79611 cumulative IPC: 0.79254 (Simulation time: 0 hr 7 min 16 sec) 
Heartbeat CPU  3 instructions:   71000003 cycles:  100967721 heartbeat IPC: 0.44571 cumulative IPC: 0.44088 (Simulation time: 0 hr 7 min 16 sec) 
Heartbeat CPU  2 instructions:  108000000 cycles:  101873808 heartbeat IPC: 0.85050 cumulative IPC: 0.84416 (Simulation time: 0 hr 7 min 19 sec) 
Heartbeat CPU  1 instructions:  104000000 cycles:  102148074 heartbeat IPC: 0.79612 cumulative IPC: 0.79263 (Simulation time: 0 hr 7 min 20 sec) 
Heartbeat CPU  2 instructions:  109000000 cycles:  103049629 heartbeat IPC: 0.85047 cumulative IPC: 0.84431 (Simulation time: 0 hr 7 min 23 sec) 
Heartbeat CPU  3 instructions:   72000000 cycles:  103211435 heartbeat IPC: 0.44569 cumulative IPC: 0.44110 (Simulation time: 0 hr 7 min 24 sec) 
Heartbeat CPU  1 instructions:  105000000 cycles:  103404379 heartbeat IPC: 0.79599 cumulative IPC: 0.79272 (Simulation time: 0 hr 7 min 24 sec) 
Heartbeat CPU  2 instructions:  110000002 cycles:  104225437 heartbeat IPC: 0.85048 cumulative IPC: 0.84445 (Simulation time: 0 hr 7 min 27 sec) 
Heartbeat CPU  1 instructions:  106000002 cycles:  104660892 heartbeat IPC: 0.79585 cumulative IPC: 0.79280 (Simulation time: 0 hr 7 min 28 sec) 
Heartbeat CPU  2 instructions:  111000000 cycles:  105401254 heartbeat IPC: 0.85047 cumulative IPC: 0.84458 (Simulation time: 0 hr 7 min 31 sec) 
Heartbeat CPU  3 instructions:   73000001 cycles:  105470699 heartbeat IPC: 0.44262 cumulative IPC: 0.44116 (Simulation time: 0 hr 7 min 31 sec) 
Heartbeat CPU  1 instructions:  107000000 cycles:  105916510 heartbeat IPC: 0.79642 cumulative IPC: 0.79288 (Simulation time: 0 hr 7 min 32 sec) 
Heartbeat CPU  2 instructions:  112000000 cycles:  106577007 heartbeat IPC: 0.85052 cumulative IPC: 0.84472 (Simulation time: 0 hr 7 min 34 sec) 
Heartbeat CPU  1 instructions:  108000000 cycles:  107171655 heartbeat IPC: 0.79672 cumulative IPC: 0.79297 (Simulation time: 0 hr 7 min 36 sec) 
Heartbeat CPU  0 instructions:  110000003 cycles:  107230071 heartbeat IPC: 0.10528 cumulative IPC: 0.42120 (Simulation time: 0 hr 7 min 36 sec) 
Heartbeat CPU  2 instructions:  113000000 cycles:  107757653 heartbeat IPC: 0.84699 cumulative IPC: 0.84476 (Simulation time: 0 hr 7 min 38 sec) 
Heartbeat CPU  3 instructions:   74000001 cycles:  107764035 heartbeat IPC: 0.43605 cumulative IPC: 0.44095 (Simulation time: 0 hr 7 min 38 sec) 
Heartbeat CPU  1 instructions:  109000002 cycles:  108426991 heartbeat IPC: 0.79660 cumulative IPC: 0.79305 (Simulation time: 0 hr 7 min 40 sec) 
Heartbeat CPU  2 instructions:  114000000 cycles:  108937998 heartbeat IPC: 0.84721 cumulative IPC: 0.84482 (Simulation time: 0 hr 7 min 42 sec) 
Heartbeat CPU  1 instructions:  110000000 cycles:  109680498 heartbeat IPC: 0.79776 cumulative IPC: 0.79316 (Simulation time: 0 hr 7 min 45 sec) 
Heartbeat CPU  0 instructions:  111000001 cycles:  109906927 heartbeat IPC: 0.37357 cumulative IPC: 0.41895 (Simulation time: 0 hr 7 min 46 sec) 
Heartbeat CPU  3 instructions:   75000001 cycles:  110057317 heartbeat IPC: 0.43606 cumulative IPC: 0.44075 (Simulation time: 0 hr 7 min 47 sec) 
Heartbeat CPU  2 instructions:  115000000 cycles:  110118299 heartbeat IPC: 0.84724 cumulative IPC: 0.84487 (Simulation time: 0 hr 7 min 47 sec) 
Heartbeat CPU  1 instructions:  111000003 cycles:  110937451 heartbeat IPC: 0.79558 cumulative IPC: 0.79321 (Simulation time: 0 hr 7 min 50 sec) 
Heartbeat CPU  0 instructions:  112000000 cycles:  111298114 heartbeat IPC: 0.71881 cumulative IPC: 0.42614 (Simulation time: 0 hr 7 min 52 sec) 
Heartbeat CPU  2 instructions:  116000000 cycles:  111298619 heartbeat IPC: 0.84723 cumulative IPC: 0.84492 (Simulation time: 0 hr 7 min 52 sec) 
Heartbeat CPU  1 instructions:  112000000 cycles:  112195003 heartbeat IPC: 0.79519 cumulative IPC: 0.79325 (Simulation time: 0 hr 7 min 55 sec) 
Heartbeat CPU  3 instructions:   76000000 cycles:  112350608 heartbeat IPC: 0.43605 cumulative IPC: 0.44057 (Simulation time: 0 hr 7 min 56 sec) 
Heartbeat CPU  2 instructions:  117000000 cycles:  112478994 heartbeat IPC: 0.84719 cumulative IPC: 0.84496 (Simulation time: 0 hr 7 min 57 sec) 
Heartbeat CPU  0 instructions:  113000001 cycles:  112662110 heartbeat IPC: 0.73314 cumulative IPC: 0.43320 (Simulation time: 0 hr 7 min 57 sec) 
Heartbeat CPU  1 instructions:  113000000 cycles:  113456118 heartbeat IPC: 0.79295 cumulative IPC: 0.79325 (Simulation time: 0 hr 8 min 1 sec) 
Heartbeat CPU  2 instructions:  118000000 cycles:  113659327 heartbeat IPC: 0.84722 cumulative IPC: 0.84500 (Simulation time: 0 hr 8 min 2 sec) 
Heartbeat CPU  0 instructions:  114000002 cycles:  113960894 heartbeat IPC: 0.76995 cumulative IPC: 0.44042 (Simulation time: 0 hr 8 min 3 sec) 
Heartbeat CPU  3 instructions:   77000001 cycles:  114643926 heartbeat IPC: 0.43605 cumulative IPC: 0.44040 (Simulation time: 0 hr 8 min 6 sec) 
Heartbeat CPU  1 instructions:  114000000 cycles:  114712885 heartbeat IPC: 0.79569 cumulative IPC: 0.79330 (Simulation time: 0 hr 8 min 6 sec) 
Heartbeat CPU  2 instructions:  119000002 cycles:  114839617 heartbeat IPC: 0.84725 cumulative IPC: 0.84505 (Simulation time: 0 hr 8 min 7 sec) 
Heartbeat CPU  0 instructions:  115000002 cycles:  115267776 heartbeat IPC: 0.76518 cumulative IPC: 0.44727 (Simulation time: 0 hr 8 min 9 sec) 
Heartbeat CPU  1 instructions:  115000001 cycles:  115970207 heartbeat IPC: 0.79534 cumulative IPC: 0.79334 (Simulation time: 0 hr 8 min 12 sec) 
Heartbeat CPU  2 instructions:  120000000 cycles:  116019946 heartbeat IPC: 0.84722 cumulative IPC: 0.84509 (Simulation time: 0 hr 8 min 12 sec) 
Heartbeat CPU  0 instructions:  116000000 cycles:  116628245 heartbeat IPC: 0.73504 cumulative IPC: 0.45346 (Simulation time: 0 hr 8 min 14 sec) 
Heartbeat CPU  3 instructions:   78000001 cycles:  116937260 heartbeat IPC: 0.43605 cumulative IPC: 0.44024 (Simulation time: 0 hr 8 min 16 sec) 
Heartbeat CPU  2 instructions:  121000000 cycles:  117200321 heartbeat IPC: 0.84719 cumulative IPC: 0.84513 (Simulation time: 0 hr 8 min 17 sec) 
Heartbeat CPU  1 instructions:  116000000 cycles:  117227665 heartbeat IPC: 0.79525 cumulative IPC: 0.79338 (Simulation time: 0 hr 8 min 17 sec) 
Heartbeat CPU  0 instructions:  117000002 cycles:  118043127 heartbeat IPC: 0.70677 cumulative IPC: 0.45899 (Simulation time: 0 hr 8 min 20 sec) 
Heartbeat CPU  2 instructions:  122000001 cycles:  118380627 heartbeat IPC: 0.84724 cumulative IPC: 0.84517 (Simulation time: 0 hr 8 min 22 sec) 
Heartbeat CPU  1 instructions:  117000000 cycles:  118485612 heartbeat IPC: 0.79495 cumulative IPC: 0.79341 (Simulation time: 0 hr 8 min 22 sec) 
Heartbeat CPU  3 instructions:   79000001 cycles:  119230550 heartbeat IPC: 0.43605 cumulative IPC: 0.44009 (Simulation time: 0 hr 8 min 25 sec) 
Heartbeat CPU  0 instructions:  118000001 cycles:  119325372 heartbeat IPC: 0.77988 cumulative IPC: 0.46523 (Simulation time: 0 hr 8 min 26 sec) 
Heartbeat CPU  2 instructions:  123000000 cycles:  119560945 heartbeat IPC: 0.84723 cumulative IPC: 0.84520 (Simulation time: 0 hr 8 min 27 sec) 
Heartbeat CPU  1 instructions:  118000000 cycles:  119742774 heartbeat IPC: 0.79544 cumulative IPC: 0.79345 (Simulation time: 0 hr 8 min 28 sec) 
Heartbeat CPU  0 instructions:  119000002 cycles:  120679515 heartbeat IPC: 0.73848 cumulative IPC: 0.47072 (Simulation time: 0 hr 8 min 32 sec) 
Heartbeat CPU  2 instructions:  124000000 cycles:  120741277 heartbeat IPC: 0.84722 cumulative IPC: 0.84524 (Simulation time: 0 hr 8 min 32 sec) 
Heartbeat CPU  1 instructions:  119000000 cycles:  120999695 heartbeat IPC: 0.79559 cumulative IPC: 0.79349 (Simulation time: 0 hr 8 min 33 sec) 
Heartbeat CPU  3 instructions:   80000000 cycles:  121523830 heartbeat IPC: 0.43606 cumulative IPC: 0.43996 (Simulation time: 0 hr 8 min 35 sec) 
Heartbeat CPU  2 instructions:  125000002 cycles:  121921637 heartbeat IPC: 0.84720 cumulative IPC: 0.84527 (Simulation time: 0 hr 8 min 36 sec) 
Heartbeat CPU  1 instructions:  120000000 cycles:  122257046 heartbeat IPC: 0.79532 cumulative IPC: 0.79352 (Simulation time: 0 hr 8 min 37 sec) 
Heartbeat CPU  0 instructions:  120000000 cycles:  122330749 heartbeat IPC: 0.60561 cumulative IPC: 0.47395 (Simulation time: 0 hr 8 min 38 sec) 
Heartbeat CPU  2 instructions:  126000000 cycles:  123101905 heartbeat IPC: 0.84726 cumulative IPC: 0.84531 (Simulation time: 0 hr 8 min 41 sec) 
Heartbeat CPU  1 instructions:  121000000 cycles:  123514667 heartbeat IPC: 0.79515 cumulative IPC: 0.79355 (Simulation time: 0 hr 8 min 42 sec) 
Heartbeat CPU  3 instructions:   81000001 cycles:  123817164 heartbeat IPC: 0.43605 cumulative IPC: 0.43983 (Simulation time: 0 hr 8 min 43 sec) 
Heartbeat CPU  0 instructions:  121000002 cycles:  123981834 heartbeat IPC: 0.60566 cumulative IPC: 0.47703 (Simulation time: 0 hr 8 min 44 sec) 
Heartbeat CPU  2 instructions:  127000002 cycles:  124282236 heartbeat IPC: 0.84722 cumulative IPC: 0.84534 (Simulation time: 0 hr 8 min 45 sec) 
Heartbeat CPU  1 instructions:  122000003 cycles:  124772329 heartbeat IPC: 0.79513 cumulative IPC: 0.79358 (Simulation time: 0 hr 8 min 47 sec) 
Heartbeat CPU  2 instructions:  128000000 cycles:  125462549 heartbeat IPC: 0.84723 cumulative IPC: 0.84537 (Simulation time: 0 hr 8 min 50 sec) 
Heartbeat CPU  0 instructions:  122000000 cycles:  125631496 heartbeat IPC: 0.60618 cumulative IPC: 0.47998 (Simulation time: 0 hr 8 min 50 sec) 
Heartbeat CPU  1 instructions:  123000002 cycles:  126029432 heartbeat IPC: 0.79548 cumulative IPC: 0.79361 (Simulation time: 0 hr 8 min 52 sec) 
Heartbeat CPU  3 instructions:   82000001 cycles:  126110474 heartbeat IPC: 0.43605 cumulative IPC: 0.43971 (Simulation time: 0 hr 8 min 52 sec) 
Heartbeat CPU  2 instructions:  129000003 cycles:  126642879 heartbeat IPC: 0.84722 cumulative IPC: 0.84540 (Simulation time: 0 hr 8 min 55 sec) 
Heartbeat CPU  0 instructions:  123000000 cycles:  127205258 heartbeat IPC: 0.63542 cumulative IPC: 0.48329 (Simulation time: 0 hr 8 min 57 sec) 
Heartbeat CPU  1 instructions:  124000000 cycles:  127285547 heartbeat IPC: 0.79610 cumulative IPC: 0.79365 (Simulation time: 0 hr 8 min 57 sec) 
Heartbeat CPU  2 instructions:  130000002 cycles:  127823181 heartbeat IPC: 0.84724 cumulative IPC: 0.84543 (Simulation time: 0 hr 8 min 59 sec) 
Heartbeat CPU  3 instructions:   83000001 cycles:  128403776 heartbeat IPC: 0.43605 cumulative IPC: 0.43960 (Simulation time: 0 hr 9 min 1 sec) 
Heartbeat CPU  1 instructions:  125000000 cycles:  128540370 heartbeat IPC: 0.79693 cumulative IPC: 0.79371 (Simulation time: 0 hr 9 min 2 sec) 
Heartbeat CPU  2 instructions:  131000000 cycles:  129003496 heartbeat IPC: 0.84723 cumulative IPC: 0.84546 (Simulation time: 0 hr 9 min 4 sec) 
Heartbeat CPU  0 instructions:  124000000 cycles:  129677409 heartbeat IPC: 0.40451 cumulative IPC: 0.48074 (Simulation time: 0 hr 9 min 6 sec) 
Heartbeat CPU  1 instructions:  126000001 cycles:  129795085 heartbeat IPC: 0.79699 cumulative IPC: 0.79376 (Simulation time: 0 hr 9 min 6 sec) 
Heartbeat CPU  2 instructions:  132000000 cycles:  130183832 heartbeat IPC: 0.84722 cumulative IPC: 0.84548 (Simulation time: 0 hr 9 min 8 sec) 
Heartbeat CPU  3 instructions:   84000000 cycles:  130697052 heartbeat IPC: 0.43606 cumulative IPC: 0.43950 (Simulation time: 0 hr 9 min 10 sec) 
Heartbeat CPU  1 instructions:  127000000 cycles:  131049584 heartbeat IPC: 0.79713 cumulative IPC: 0.79381 (Simulation time: 0 hr 9 min 11 sec) 
Heartbeat CPU  2 instructions:  133000001 cycles:  131371431 heartbeat IPC: 0.84204 cumulative IPC: 0.84543 (Simulation time: 0 hr 9 min 12 sec) 
Heartbeat CPU  1 instructions:  128000000 cycles:  132304338 heartbeat IPC: 0.79697 cumulative IPC: 0.79386 (Simulation time: 0 hr 9 min 16 sec) 
Heartbeat CPU  0 instructions:  125000000 cycles:  132532723 heartbeat IPC: 0.35022 cumulative IPC: 0.47603 (Simulation time: 0 hr 9 min 16 sec) 
Heartbeat CPU  2 instructions:  134000001 cycles:  132551294 heartbeat IPC: 0.84756 cumulative IPC: 0.84546 (Simulation time: 0 hr 9 min 16 sec) 
Heartbeat CPU  3 instructions:   85000001 cycles:  132990377 heartbeat IPC: 0.43605 cumulative IPC: 0.43940 (Simulation time: 0 hr 9 min 18 sec) 
Heartbeat CPU  1 instructions:  129000001 cycles:  133559488 heartbeat IPC: 0.79672 cumulative IPC: 0.79391 (Simulation time: 0 hr 9 min 20 sec) 
Heartbeat CPU  2 instructions:  135000002 cycles:  133731096 heartbeat IPC: 0.84760 cumulative IPC: 0.84549 (Simulation time: 0 hr 9 min 21 sec) 
Heartbeat CPU  1 instructions:  130000000 cycles:  134815628 heartbeat IPC: 0.79609 cumulative IPC: 0.79394 (Simulation time: 0 hr 9 min 25 sec) 
Heartbeat CPU  2 instructions:  136000000 cycles:  134910896 heartbeat IPC: 0.84760 cumulative IPC: 0.84552 (Simulation time: 0 hr 9 min 25 sec) 
Heartbeat CPU  3 instructions:   86000001 cycles:  135283702 heartbeat IPC: 0.43605 cumulative IPC: 0.43930 (Simulation time: 0 hr 9 min 26 sec) 
Heartbeat CPU  0 instructions:  126000001 cycles:  135561506 heartbeat IPC: 0.33017 cumulative IPC: 0.47066 (Simulation time: 0 hr 9 min 28 sec) 
Heartbeat CPU  1 instructions:  131000002 cycles:  136073134 heartbeat IPC: 0.79523 cumulative IPC: 0.79396 (Simulation time: 0 hr 9 min 29 sec) 
Heartbeat CPU  2 instructions:  137000001 cycles:  136090731 heartbeat IPC: 0.84758 cumulative IPC: 0.84555 (Simulation time: 0 hr 9 min 29 sec) 
Heartbeat CPU  2 instructions:  138000001 cycles:  137270550 heartbeat IPC: 0.84759 cumulative IPC: 0.84558 (Simulation time: 0 hr 9 min 34 sec) 
Heartbeat CPU  1 instructions:  132000000 cycles:  137330383 heartbeat IPC: 0.79539 cumulative IPC: 0.79398 (Simulation time: 0 hr 9 min 34 sec) 
Heartbeat CPU  3 instructions:   87000001 cycles:  137577000 heartbeat IPC: 0.43605 cumulative IPC: 0.43921 (Simulation time: 0 hr 9 min 35 sec) 
Heartbeat CPU  2 instructions:  139000001 cycles:  138450323 heartbeat IPC: 0.84762 cumulative IPC: 0.84561 (Simulation time: 0 hr 9 min 38 sec) 
Heartbeat CPU  0 instructions:  127000003 cycles:  138652476 heartbeat IPC: 0.32352 cumulative IPC: 0.46533 (Simulation time: 0 hr 9 min 39 sec) 
Heartbeat CPU  1 instructions:  133000000 cycles:  138657246 heartbeat IPC: 0.75366 cumulative IPC: 0.79336 (Simulation time: 0 hr 9 min 39 sec) 
Heartbeat CPU  2 instructions:  140000000 cycles:  139630162 heartbeat IPC: 0.84757 cumulative IPC: 0.84564 (Simulation time: 0 hr 9 min 42 sec) 
Heartbeat CPU  3 instructions:   88000000 cycles:  139870285 heartbeat IPC: 0.43606 cumulative IPC: 0.43913 (Simulation time: 0 hr 9 min 43 sec) 
Heartbeat CPU  1 instructions:  134000001 cycles:  139914453 heartbeat IPC: 0.79541 cumulative IPC: 0.79339 (Simulation time: 0 hr 9 min 43 sec) 
Heartbeat CPU  2 instructions:  141000003 cycles:  140810048 heartbeat IPC: 0.84754 cumulative IPC: 0.84566 (Simulation time: 0 hr 9 min 47 sec) 
Heartbeat CPU  1 instructions:  135000001 cycles:  141171114 heartbeat IPC: 0.79576 cumulative IPC: 0.79342 (Simulation time: 0 hr 9 min 48 sec) 
Heartbeat CPU  0 instructions:  128000000 cycles:  141469133 heartbeat IPC: 0.35503 cumulative IPC: 0.46180 (Simulation time: 0 hr 9 min 49 sec) 
Heartbeat CPU  2 instructions:  142000000 cycles:  141989818 heartbeat IPC: 0.84762 cumulative IPC: 0.84569 (Simulation time: 0 hr 9 min 51 sec) 
Heartbeat CPU  3 instructions:   89000001 cycles:  142163610 heartbeat IPC: 0.43605 cumulative IPC: 0.43905 (Simulation time: 0 hr 9 min 51 sec) 
Heartbeat CPU  1 instructions:  136000000 cycles:  142428386 heartbeat IPC: 0.79537 cumulative IPC: 0.79345 (Simulation time: 0 hr 9 min 52 sec) 
Heartbeat CPU  2 instructions:  143000003 cycles:  143169620 heartbeat IPC: 0.84760 cumulative IPC: 0.84571 (Simulation time: 0 hr 9 min 55 sec) 
Heartbeat CPU  1 instructions:  137000000 cycles:  143685500 heartbeat IPC: 0.79547 cumulative IPC: 0.79348 (Simulation time: 0 hr 9 min 57 sec) 
Heartbeat CPU  2 instructions:  144000000 cycles:  144349456 heartbeat IPC: 0.84757 cumulative IPC: 0.84574 (Simulation time: 0 hr 9 min 59 sec) 
Heartbeat CPU  3 instructions:   90000001 cycles:  144456941 heartbeat IPC: 0.43605 cumulative IPC: 0.43898 (Simulation time: 0 hr 9 min 59 sec) 
Heartbeat CPU  0 instructions:  129000002 cycles:  144669445 heartbeat IPC: 0.31247 cumulative IPC: 0.45657 (Simulation time: 0 hr 10 min 0 sec) 
Heartbeat CPU  1 instructions:  138000002 cycles:  144942651 heartbeat IPC: 0.79545 cumulative IPC: 0.79350 (Simulation time: 0 hr 10 min 1 sec) 
Heartbeat CPU  2 instructions:  145000000 cycles:  145529315 heartbeat IPC: 0.84756 cumulative IPC: 0.84576 (Simulation time: 0 hr 10 min 3 sec) 
Heartbeat CPU  1 instructions:  139000003 cycles:  146200521 heartbeat IPC: 0.79500 cumulative IPC: 0.79352 (Simulation time: 0 hr 10 min 5 sec) 
Heartbeat CPU  2 instructions:  146000001 cycles:  146709063 heartbeat IPC: 0.84764 cumulative IPC: 0.84578 (Simulation time: 0 hr 10 min 7 sec) 
Heartbeat CPU  3 instructions:   91000001 cycles:  146750228 heartbeat IPC: 0.43606 cumulative IPC: 0.43890 (Simulation time: 0 hr 10 min 8 sec) 
Heartbeat CPU  0 instructions:  130000000 cycles:  146779196 heartbeat IPC: 0.47399 cumulative IPC: 0.45696 (Simulation time: 0 hr 10 min 8 sec) 
Heartbeat CPU  1 instructions:  140000000 cycles:  147454952 heartbeat IPC: 0.79717 cumulative IPC: 0.79357 (Simulation time: 0 hr 10 min 10 sec) 
Heartbeat CPU  2 instructions:  147000001 cycles:  147888882 heartbeat IPC: 0.84759 cumulative IPC: 0.84581 (Simulation time: 0 hr 10 min 12 sec) 
Heartbeat CPU  0 instructions:  131000001 cycles:  148346267 heartbeat IPC: 0.63813 cumulative IPC: 0.45995 (Simulation time: 0 hr 10 min 14 sec) 
Heartbeat CPU  1 instructions:  141000002 cycles:  148709625 heartbeat IPC: 0.79702 cumulative IPC: 0.79362 (Simulation time: 0 hr 10 min 15 sec) 
Heartbeat CPU  3 instructions:   92000000 cycles:  149043517 heartbeat IPC: 0.43605 cumulative IPC: 0.43884 (Simulation time: 0 hr 10 min 17 sec) 
Heartbeat CPU  2 instructions:  148000000 cycles:  149068712 heartbeat IPC: 0.84758 cumulative IPC: 0.84583 (Simulation time: 0 hr 10 min 17 sec) 
Heartbeat CPU  0 instructions:  132000000 cycles:  149696663 heartbeat IPC: 0.74052 cumulative IPC: 0.46388 (Simulation time: 0 hr 10 min 20 sec) 
Heartbeat CPU  1 instructions:  142000003 cycles:  149964047 heartbeat IPC: 0.79718 cumulative IPC: 0.79366 (Simulation time: 0 hr 10 min 21 sec) 
Heartbeat CPU  2 instructions:  149000003 cycles:  150248567 heartbeat IPC: 0.84756 cumulative IPC: 0.84585 (Simulation time: 0 hr 10 min 22 sec) 
Heartbeat CPU  0 instructions:  133000002 cycles:  151150701 heartbeat IPC: 0.68774 cumulative IPC: 0.46721 (Simulation time: 0 hr 10 min 26 sec) 
Heartbeat CPU  1 instructions:  143000002 cycles:  151219030 heartbeat IPC: 0.79682 cumulative IPC: 0.79370 (Simulation time: 0 hr 10 min 27 sec) 
Heartbeat CPU  3 instructions:   93000001 cycles:  151338697 heartbeat IPC: 0.43570 cumulative IPC: 0.43876 (Simulation time: 0 hr 10 min 27 sec) 
Heartbeat CPU  2 instructions:  150000001 cycles:  151428358 heartbeat IPC: 0.84761 cumulative IPC: 0.84587 (Simulation time: 0 hr 10 min 27 sec) 
Heartbeat CPU  1 instructions:  144000000 cycles:  152473539 heartbeat IPC: 0.79712 cumulative IPC: 0.79375 (Simulation time: 0 hr 10 min 32 sec) 
Heartbeat CPU  0 instructions:  134000003 cycles:  152552421 heartbeat IPC: 0.71341 cumulative IPC: 0.47069 (Simulation time: 0 hr 10 min 32 sec) 
Heartbeat CPU  2 instructions:  151000002 cycles:  152608227 heartbeat IPC: 0.84755 cumulative IPC: 0.84589 (Simulation time: 0 hr 10 min 33 sec) 
Heartbeat CPU  3 instructions:   94000001 cycles:  153630671 heartbeat IPC: 0.43631 cumulative IPC: 0.43871 (Simulation time: 0 hr 10 min 37 sec) 
[...]
Core_0_L2C_load_miss 878869
Core_0_L2C_RFOs 256702
Core_0_L2C_RFO_hit 22968
Core_0_L2C_RFO_miss 233734
Core_0_L2C_prefetches 2971645
Core_0_L2C_prefetch_hit 1263268
Core_0_L2C_prefetch_miss 1708377
Core_0_L2C_writebacks 785510
Core_0_L2C_writeback_hit 785265
Core_0_L2C_writeback_miss 245
Core_0_L2C_prefetch_requested 6803166
Core_0_L2C_prefetch_dropped 0
Core_0_L2C_prefetch_issued 6803166
Core_0_L2C_prefetch_filled 3006230
Core_0_L2C_prefetch_useful 1807428
Core_0_L2C_prefetch_useless 1196333
Core_0_L2C_prefetch_late 284836
Core_0_L2C_average_miss_latency 150.10900

Core_0_L2C_rq_access 2421883
Core_0_L2C_rq_forward 0
Core_0_L2C_rq_merged 0
Core_0_L2C_rq_to_cache 2421868
Core_0_L2C_rq_full 0

Core_0_L2C_wq_access 797751
Core_0_L2C_wq_forward 15
Core_0_L2C_wq_merged 0
Core_0_L2C_wq_to_cache 797751
Core_0_L2C_wq_full 0

Core_0_L2C_pq_access 6803166
Core_0_L2C_pq_forward 0
Core_0_L2C_pq_merged 136886
Core_0_L2C_pq_to_cache 6666280
Core_0_L2C_pq_full 0

Core_0_L2C_acc_epochs 276884
Core_0_L2C_acc_level_0 24408
Core_0_L2C_acc_level_1 10240
Core_0_L2C_acc_level_2 9517
Core_0_L2C_acc_level_3 12783
Core_0_L2C_acc_level_4 13481
Core_0_L2C_acc_level_5 14028
Core_0_L2C_acc_level_6 14777
Core_0_L2C_acc_level_7 16434
Core_0_L2C_acc_level_8 21932
Core_0_L2C_acc_level_9 139284

Core_0_LLC_total_access 3581513
Core_0_LLC_total_hit 1631085
Core_0_LLC_total_miss 1950428
Core_0_LLC_loads 606330
Core_0_LLC_load_hit 286927
Core_0_LLC_load_miss 319403
Core_0_LLC_RFOs 233722
Core_0_LLC_RFO_hit 3951
Core_0_LLC_RFO_miss 229771
Core_0_LLC_prefetches 1980928
Core_0_LLC_prefetch_hit 579678
Core_0_LLC_prefetch_miss 1401250
Core_0_LLC_writebacks 760533
Core_0_LLC_writeback_hit 760529
Core_0_LLC_writeback_miss 4
Core_0_LLC_prefetch_requested 0
Core_0_LLC_prefetch_dropped 0
Core_0_LLC_prefetch_issued 0
Core_0_LLC_prefetch_filled 2189238
Core_0_LLC_prefetch_useful 159757
Core_0_LLC_prefetch_useless 1943468
Core_0_LLC_prefetch_late 0
Core_0_LLC_average_miss_latency 162.31194

Core_0_LLC_rq_access 914697
Core_0_LLC_rq_forward 0
Core_0_LLC_rq_merged 0
Core_0_LLC_rq_to_cache 914697
Core_0_LLC_rq_full 0

Core_0_LLC_wq_access 775566
Core_0_LLC_wq_forward 0
Core_0_LLC_wq_merged 0
Core_0_LLC_wq_to_cache 775566
Core_0_LLC_wq_full 0

Core_0_LLC_pq_access 3298306
Core_0_LLC_pq_forward 0
Core_0_LLC_pq_merged 0
Core_0_LLC_pq_to_cache 3298306
Core_0_LLC_pq_full 0

Core_0_LLC_acc_epochs 367824
Core_0_LLC_acc_level_0 309268
Core_0_LLC_acc_level_1 13531
Core_0_LLC_acc_level_2 8995
Core_0_LLC_acc_level_3 5153
Core_0_LLC_acc_level_4 3008
Core_0_LLC_acc_level_5 6131
Core_0_LLC_acc_level_6 2927
Core_0_LLC_acc_level_7 2569
Core_0_LLC_acc_level_8 1906
Core_0_LLC_acc_level_9 14336

Core_0_major_page_fault 0
Core_0_minor_page_fault 11115

Core_1_instructions 150000000
Core_1_cycles 189163087
Core_1_IPC 0.79297

Core_1_branch_prediction_accuracy 93.54741
Core_1_branch_MPKI 15.47006
Core_1_average_ROB_occupancy_at_mispredict 73.43117

Core_1_L1D_total_access 22786859
Core_1_L1D_total_hit 22785504
Core_1_L1D_total_miss 1355
Core_1_L1D_loads 20323736
Core_1_L1D_load_hit 20322661
Core_1_L1D_load_miss 1075
Core_1_L1D_RFOs 2463123
Core_1_L1D_RFO_hit 2462843
Core_1_L1D_RFO_miss 280
Core_1_L1D_prefetches 0
Core_1_L1D_prefetch_hit 0
Core_1_L1D_prefetch_miss 0
Core_1_L1D_writebacks 0
Core_1_L1D_writeback_hit 0
Core_1_L1D_writeback_miss 0
Core_1_L1D_prefetch_requested 0
Core_1_L1D_prefetch_dropped 0
Core_1_L1D_prefetch_issued 0
Core_1_L1D_prefetch_filled 0
Core_1_L1D_prefetch_useful 0
Core_1_L1D_prefetch_useless 0
Core_1_L1D_prefetch_late 0
Core_1_L1D_average_miss_latency 266.28635

Core_1_L1D_rq_access 59221937
Core_1_L1D_rq_forward 0
Core_1_L1D_rq_merged 24503098
Core_1_L1D_rq_to_cache 34718837
Core_1_L1D_rq_full 0

Core_1_L1D_wq_access 4212899
Core_1_L1D_wq_forward 2
Core_1_L1D_wq_merged 26
Core_1_L1D_wq_to_cache 4212873
Core_1_L1D_wq_full 0

Core_1_L1D_pq_access 0
Core_1_L1D_pq_forward 0
Core_1_L1D_pq_merged 0
Core_1_L1D_pq_to_cache 0
Core_1_L1D_pq_full 0

Core_1_L1D_acc_epochs 367327
Core_1_L1D_acc_level_0 367327
Core_1_L1D_acc_level_1 0
Core_1_L1D_acc_level_2 0
Core_1_L1D_acc_level_3 0
Core_1_L1D_acc_level_4 0
Core_1_L1D_acc_level_5 0
Core_1_L1D_acc_level_6 0
Core_1_L1D_acc_level_7 0
Core_1_L1D_acc_level_8 0
Core_1_L1D_acc_level_9 0

Core_1_L1I_total_access 35653343
Core_1_L1I_total_hit 35651074
Core_1_L1I_total_miss 2269
Core_1_L1I_loads 35653343
Core_1_L1I_load_hit 35651074
Core_1_L1I_load_miss 2269
Core_1_L1I_RFOs 0
Core_1_L1I_RFO_hit 0
Core_1_L1I_RFO_miss 0
Core_1_L1I_prefetches 0
Core_1_L1I_prefetch_hit 0
Core_1_L1I_prefetch_miss 0
Core_1_L1I_writebacks 0
Core_1_L1I_writeback_hit 0
Core_1_L1I_writeback_miss 0
Core_1_L1I_prefetch_requested 0
Core_1_L1I_prefetch_dropped 0
Core_1_L1I_prefetch_issued 0
Core_1_L1I_prefetch_filled 0
Core_1_L1I_prefetch_useful 0
Core_1_L1I_prefetch_useless 0
Core_1_L1I_prefetch_late 0
Core_1_L1I_average_miss_latency 218.64434

Core_1_L1I_rq_access 256431425
Core_1_L1I_rq_forward 0
Core_1_L1I_rq_merged 195479555
Core_1_L1I_rq_to_cache 60951870
Core_1_L1I_rq_full 0

Core_1_L1I_wq_access 0
Core_1_L1I_wq_forward 0
Core_1_L1I_wq_merged 0
Core_1_L1I_wq_to_cache 0
Core_1_L1I_wq_full 0

Core_1_L1I_pq_access 0
Core_1_L1I_pq_forward 0
Core_1_L1I_pq_merged 0
Core_1_L1I_pq_to_cache 0
Core_1_L1I_pq_full 0

Core_1_L1I_acc_epochs 367327
Core_1_L1I_acc_level_0 367327
Core_1_L1I_acc_level_1 0
Core_1_L1I_acc_level_2 0
Core_1_L1I_acc_level_3 0
Core_1_L1I_acc_level_4 0
Core_1_L1I_acc_level_5 0
Core_1_L1I_acc_level_6 0
Core_1_L1I_acc_level_7 0
Core_1_L1I_acc_level_8 0
Core_1_L1I_acc_level_9 0

Core_1_L2C_total_access 9669
Core_1_L2C_total_hit 6874
Core_1_L2C_total_miss 2795
Core_1_L2C_loads 3344
Core_1_L2C_load_hit 2360
Core_1_L2C_load_miss 984
Core_1_L2C_RFOs 280
Core_1_L2C_RFO_hit 142
Core_1_L2C_RFO_miss 138
Core_1_L2C_prefetches 5346
Core_1_L2C_prefetch_hit 3766
Core_1_L2C_prefetch_miss 1580
Core_1_L2C_writebacks 699
Core_1_L2C_writeback_hit 606
Core_1_L2C_writeback_miss 93
Core_1_L2C_prefetch_requested 19946
Core_1_L2C_prefetch_dropped 0
Core_1_L2C_prefetch_issued 19946
Core_1_L2C_prefetch_filled 6046
Core_1_L2C_prefetch_useful 1881
Core_1_L2C_prefetch_useless 2704
Core_1_L2C_prefetch_late 292
Core_1_L2C_average_miss_latency 436.27621

Core_1_L2C_rq_access 7060
Core_1_L2C_rq_forward 0
Core_1_L2C_rq_merged 0
Core_1_L2C_rq_to_cache 7060
Core_1_L2C_rq_full 0

Core_1_L2C_wq_access 1343
Core_1_L2C_wq_forward 0
Core_1_L2C_wq_merged 0
Core_1_L2C_wq_to_cache 1343
Core_1_L2C_wq_full 0

Core_1_L2C_pq_access 19946
Core_1_L2C_pq_forward 0
Core_1_L2C_pq_merged 2055
Core_1_L2C_pq_to_cache 17891
Core_1_L2C_pq_full 0

Core_1_L2C_acc_epochs 367327
Core_1_L2C_acc_level_0 366994
Core_1_L2C_acc_level_1 97
Core_1_L2C_acc_level_2 81
Core_1_L2C_acc_level_3 63
Core_1_L2C_acc_level_4 56
Core_1_L2C_acc_level_5 17
Core_1_L2C_acc_level_6 11
Core_1_L2C_acc_level_7 4
Core_1_L2C_acc_level_8 0
Core_1_L2C_acc_level_9 4

Core_1_LLC_total_access 3077
Core_1_LLC_total_hit 188
Core_1_LLC_total_miss 2889
Core_1_LLC_loads 874
Core_1_LLC_load_hit 59
Core_1_LLC_load_miss 815
Core_1_LLC_RFOs 135
Core_1_LLC_RFO_hit 69
Core_1_LLC_RFO_miss 66
Core_1_LLC_prefetches 1693
Core_1_LLC_prefetch_hit 30
Core_1_LLC_prefetch_miss 1663
Core_1_LLC_writebacks 375
Core_1_LLC_writeback_hit 30
Core_1_LLC_writeback_miss 345
Core_1_LLC_prefetch_requested 0
Core_1_LLC_prefetch_dropped 0
Core_1_LLC_prefetch_issued 0
Core_1_LLC_prefetch_filled 2189238
Core_1_LLC_prefetch_useful 159757
Core_1_LLC_prefetch_useless 1943468
Core_1_LLC_prefetch_late 0
Core_1_LLC_average_miss_latency 109580.38975

Core_1_LLC_rq_access 914697
Core_1_LLC_rq_forward 0
Core_1_LLC_rq_merged 0
Core_1_LLC_rq_to_cache 914697
Core_1_LLC_rq_full 0

Core_1_LLC_wq_access 775566
Core_1_LLC_wq_forward 0
Core_1_LLC_wq_merged 0
Core_1_LLC_wq_to_cache 775566
Core_1_LLC_wq_full 0

Core_1_LLC_pq_access 3298306
Core_1_LLC_pq_forward 0
Core_1_LLC_pq_merged 0
Core_1_LLC_pq_to_cache 3298306
Core_1_LLC_pq_full 0

Core_1_LLC_acc_epochs 367824
Core_1_LLC_acc_level_0 309268
Core_1_LLC_acc_level_1 13531
Core_1_LLC_acc_level_2 8995
Core_1_LLC_acc_level_3 5153
Core_1_LLC_acc_level_4 3008
Core_1_LLC_acc_level_5 6131
Core_1_LLC_acc_level_6 2927
Core_1_LLC_acc_level_7 2569
Core_1_LLC_acc_level_8 1906
Core_1_LLC_acc_level_9 14336

Core_1_major_page_fault 0
Core_1_minor_page_fault 567

Core_2_instructions 150000001
Core_2_cycles 177363286
Core_2_IPC 0.84572

Core_2_branch_prediction_accuracy 93.54813
Core_2_branch_MPKI 15.43289
Core_2_average_ROB_occupancy_at_mispredict 62.80588

Core_2_L1D_total_access 28529858
Core_2_L1D_total_hit 28529853
Core_2_L1D_total_miss 5
Core_2_L1D_loads 26070221
Core_2_L1D_load_hit 26070221
Core_2_L1D_load_miss 0
Core_2_L1D_RFOs 2459637
Core_2_L1D_RFO_hit 2459632
Core_2_L1D_RFO_miss 5
Core_2_L1D_prefetches 0
Core_2_L1D_prefetch_hit 0
Core_2_L1D_prefetch_miss 0
Core_2_L1D_writebacks 0
Core_2_L1D_writeback_hit 0
Core_2_L1D_writeback_miss 0
Core_2_L1D_prefetch_requested 0
Core_2_L1D_prefetch_dropped 0
Core_2_L1D_prefetch_issued 0
Core_2_L1D_prefetch_filled 0
Core_2_L1D_prefetch_useful 0
Core_2_L1D_prefetch_useless 0
Core_2_L1D_prefetch_late 0
Core_2_L1D_average_miss_latency 439.20000

Core_2_L1D_rq_access 63164299
Core_2_L1D_rq_forward 0
Core_2_L1D_rq_merged 15637524
Core_2_L1D_rq_to_cache 47526775
Core_2_L1D_rq_full 0

Core_2_L1D_wq_access 4485003
Core_2_L1D_wq_forward 0
Core_2_L1D_wq_merged 0
Core_2_L1D_wq_to_cache 4485003
Core_2_L1D_wq_full 0

Core_2_L1D_pq_access 0
Core_2_L1D_pq_forward 0
Core_2_L1D_pq_merged 0
Core_2_L1D_pq_to_cache 0
Core_2_L1D_pq_full 0

Core_2_L1D_acc_epochs 367769
Core_2_L1D_acc_level_0 367769
Core_2_L1D_acc_level_1 0
Core_2_L1D_acc_level_2 0
Core_2_L1D_acc_level_3 0
Core_2_L1D_acc_level_4 0
Core_2_L1D_acc_level_5 0
Core_2_L1D_acc_level_6 0
Core_2_L1D_acc_level_7 0
Core_2_L1D_acc_level_8 0
Core_2_L1D_acc_level_9 0

Core_2_L1I_total_access 35655434
Core_2_L1I_total_hit 35655428
Core_2_L1I_total_miss 6
Core_2_L1I_loads 35655434
Core_2_L1I_load_hit 35655428
Core_2_L1I_load_miss 6
Core_2_L1I_RFOs 0
Core_2_L1I_RFO_hit 0
Core_2_L1I_RFO_miss 0
Core_2_L1I_prefetches 0
Core_2_L1I_prefetch_hit 0
Core_2_L1I_prefetch_miss 0
Core_2_L1I_writebacks 0
Core_2_L1I_writeback_hit 0
Core_2_L1I_writeback_miss 0
Core_2_L1I_prefetch_requested 0
Core_2_L1I_prefetch_dropped 0
Core_2_L1I_prefetch_issued 0
Core_2_L1I_prefetch_filled 0
Core_2_L1I_prefetch_useful 0
Core_2_L1I_prefetch_useless 0
Core_2_L1I_prefetch_late 0
Core_2_L1I_average_miss_latency 157.66667

Core_2_L1I_rq_access 273519413
Core_2_L1I_rq_forward 0
Core_2_L1I_rq_merged 208502928
Core_2_L1I_rq_to_cache 65016485
Core_2_L1I_rq_full 0

Core_2_L1I_wq_access 0
Core_2_L1I_wq_forward 0
Core_2_L1I_wq_merged 0
Core_2_L1I_wq_to_cache 0
Core_2_L1I_wq_full 0

Core_2_L1I_pq_access 0
Core_2_L1I_pq_forward 0
Core_2_L1I_pq_merged 0
Core_2_L1I_pq_to_cache 0
Core_2_L1I_pq_full 0

Core_2_L1I_acc_epochs 367769
Core_2_L1I_acc_level_0 367769
Core_2_L1I_acc_level_1 0
Core_2_L1I_acc_level_2 0
Core_2_L1I_acc_level_3 0
Core_2_L1I_acc_level_4 0
Core_2_L1I_acc_level_5 0
Core_2_L1I_acc_level_6 0
Core_2_L1I_acc_level_7 0
Core_2_L1I_acc_level_8 0
Core_2_L1I_acc_level_9 0

Core_2_L2C_total_access 20
Core_2_L2C_total_hit 3
Core_2_L2C_total_miss 17
Core_2_L2C_loads 6
Core_2_L2C_load_hit 2
Core_2_L2C_load_miss 4
Core_2_L2C_RFOs 5
Core_2_L2C_RFO_hit 0
Core_2_L2C_RFO_miss 5
Core_2_L2C_prefetches 9
Core_2_L2C_prefetch_hit 1
Core_2_L2C_prefetch_miss 8
Core_2_L2C_writebacks 0
Core_2_L2C_writeback_hit 0
Core_2_L2C_writeback_miss 0
Core_2_L2C_prefetch_requested 364
Core_2_L2C_prefetch_dropped 0
Core_2_L2C_prefetch_issued 364
Core_2_L2C_prefetch_filled 221
Core_2_L2C_prefetch_useful 79
Core_2_L2C_prefetch_useless 0
Core_2_L2C_prefetch_late 9
Core_2_L2C_average_miss_latency 252.58824

Core_2_L2C_rq_access 11
Core_2_L2C_rq_forward 0
Core_2_L2C_rq_merged 0
Core_2_L2C_rq_to_cache 11
Core_2_L2C_rq_full 0

Core_2_L2C_wq_access 0
Core_2_L2C_wq_forward 0
Core_2_L2C_wq_merged 0
Core_2_L2C_wq_to_cache 0
Core_2_L2C_wq_full 0

Core_2_L2C_pq_access 364
Core_2_L2C_pq_forward 0
Core_2_L2C_pq_merged 7
Core_2_L2C_pq_to_cache 357
Core_2_L2C_pq_full 0

Core_2_L2C_acc_epochs 367769
Core_2_L2C_acc_level_0 367759
Core_2_L2C_acc_level_1 5
Core_2_L2C_acc_level_2 3
Core_2_L2C_acc_level_3 1
Core_2_L2C_acc_level_4 0
Core_2_L2C_acc_level_5 1
Core_2_L2C_acc_level_6 0
Core_2_L2C_acc_level_7 0
Core_2_L2C_acc_level_8 0
Core_2_L2C_acc_level_9 0

Core_2_LLC_total_access 17
Core_2_LLC_total_hit 0
Core_2_LLC_total_miss 17
Core_2_LLC_loads 4
Core_2_LLC_load_hit 0
Core_2_LLC_load_miss 4
Core_2_LLC_RFOs 5
Core_2_LLC_RFO_hit 0
Core_2_LLC_RFO_miss 5
Core_2_LLC_prefetches 8
Core_2_LLC_prefetch_hit 0
Core_2_LLC_prefetch_miss 8
Core_2_LLC_writebacks 0
Core_2_LLC_writeback_hit 0
Core_2_LLC_writeback_miss 0
Core_2_LLC_prefetch_requested 0
Core_2_LLC_prefetch_dropped 0
Core_2_LLC_prefetch_issued 0
Core_2_LLC_prefetch_filled 2189238
Core_2_LLC_prefetch_useful 159757
Core_2_LLC_prefetch_useless 1943468
Core_2_LLC_prefetch_late 0
Core_2_LLC_average_miss_latency 18622220.35294

Core_2_LLC_rq_access 914697
Core_2_LLC_rq_forward 0
Core_2_LLC_rq_merged 0
Core_2_LLC_rq_to_cache 914697
Core_2_LLC_rq_full 0

Core_2_LLC_wq_access 775566
Core_2_LLC_wq_forward 0
Core_2_LLC_wq_merged 0
Core_2_LLC_wq_to_cache 775566
Core_2_LLC_wq_full 0

Core_2_LLC_pq_access 3298306
Core_2_LLC_pq_forward 0
Core_2_LLC_pq_merged 0
Core_2_LLC_pq_to_cache 3298306
Core_2_LLC_pq_full 0

Core_2_LLC_acc_epochs 367824
Core_2_LLC_acc_level_0 309268
Core_2_LLC_acc_level_1 13531
Core_2_LLC_acc_level_2 8995
Core_2_LLC_acc_level_3 5153
Core_2_LLC_acc_level_4 3008
Core_2_LLC_acc_level_5 6131
Core_2_LLC_acc_level_6 2927
Core_2_LLC_acc_level_7 2569
Core_2_LLC_acc_level_8 1906
Core_2_LLC_acc_level_9 14336

Core_2_major_page_fault 0
Core_2_minor_page_fault 53

Core_3_instructions 150000000
Core_3_cycles 323315511
Core_3_IPC 0.46394

Core_3_branch_prediction_accuracy 88.36146
Core_3_branch_MPKI 29.82217
Core_3_average_ROB_occupancy_at_mispredict 34.80544

Core_3_L1D_total_access 29287032
Core_3_L1D_total_hit 29286954
Core_3_L1D_total_miss 78
Core_3_L1D_loads 27410180
Core_3_L1D_load_hit 27410111
Core_3_L1D_load_miss 69
Core_3_L1D_RFOs 1876852
Core_3_L1D_RFO_hit 1876843
Core_3_L1D_RFO_miss 9
Core_3_L1D_prefetches 0
Core_3_L1D_prefetch_hit 0
Core_3_L1D_prefetch_miss 0
Core_3_L1D_writebacks 0
Core_3_L1D_writeback_hit 0
Core_3_L1D_writeback_miss 0
Core_3_L1D_prefetch_requested 0
Core_3_L1D_prefetch_dropped 0
Core_3_L1D_prefetch_issued 0
Core_3_L1D_prefetch_filled 0
Core_3_L1D_prefetch_useful 0
Core_3_L1D_prefetch_useless 0
Core_3_L1D_prefetch_late 0
Core_3_L1D_average_miss_latency 146.55128

Core_3_L1D_rq_access 37673268
Core_3_L1D_rq_forward 0
Core_3_L1D_rq_merged 10263083
Core_3_L1D_rq_to_cache 27410185
Core_3_L1D_rq_full 0

Core_3_L1D_wq_access 1876872
Core_3_L1D_wq_forward 0
Core_3_L1D_wq_merged 3
Core_3_L1D_wq_to_cache 1876869
Core_3_L1D_wq_full 0

Core_3_L1D_pq_access 0
Core_3_L1D_pq_forward 0
Core_3_L1D_pq_merged 0
Core_3_L1D_pq_to_cache 0
Core_3_L1D_pq_full 0

Core_3_L1D_acc_epochs 367736
Core_3_L1D_acc_level_0 367736
Core_3_L1D_acc_level_1 0
Core_3_L1D_acc_level_2 0
Core_3_L1D_acc_level_3 0
Core_3_L1D_acc_level_4 0
Core_3_L1D_acc_level_5 0
Core_3_L1D_acc_level_6 0
Core_3_L1D_acc_level_7 0
Core_3_L1D_acc_level_8 0
Core_3_L1D_acc_level_9 0

Core_3_L1I_total_access 39788008
Core_3_L1I_total_hit 39787949
Core_3_L1I_total_miss 59
Core_3_L1I_loads 39788008
Core_3_L1I_load_hit 39787949
Core_3_L1I_load_miss 59
Core_3_L1I_RFOs 0
Core_3_L1I_RFO_hit 0
Core_3_L1I_RFO_miss 0
Core_3_L1I_prefetches 0
Core_3_L1I_prefetch_hit 0
Core_3_L1I_prefetch_miss 0
Core_3_L1I_writebacks 0
Core_3_L1I_writeback_hit 0
Core_3_L1I_writeback_miss 0
Core_3_L1I_prefetch_requested 0
Core_3_L1I_prefetch_dropped 0
Core_3_L1I_prefetch_issued 0
Core_3_L1I_prefetch_filled 0
Core_3_L1I_prefetch_useful 0
Core_3_L1I_prefetch_useless 0
Core_3_L1I_prefetch_late 0
Core_3_L1I_average_miss_latency 61.77966

Core_3_L1I_rq_access 149999982
Core_3_L1I_rq_forward 0
Core_3_L1I_rq_merged 110211961
Core_3_L1I_rq_to_cache 39788021
Core_3_L1I_rq_full 0

Core_3_L1I_wq_access 0
Core_3_L1I_wq_forward 0
Core_3_L1I_wq_merged 0
Core_3_L1I_wq_to_cache 0
Core_3_L1I_wq_full 0

Core_3_L1I_pq_access 0
Core_3_L1I_pq_forward 0
Core_3_L1I_pq_merged 0
Core_3_L1I_pq_to_cache 0
Core_3_L1I_pq_full 0

Core_3_L1I_acc_epochs 367736
Core_3_L1I_acc_level_0 367736
Core_3_L1I_acc_level_1 0
Core_3_L1I_acc_level_2 0
Core_3_L1I_acc_level_3 0
Core_3_L1I_acc_level_4 0
Core_3_L1I_acc_level_5 0
Core_3_L1I_acc_level_6 0
Core_3_L1I_acc_level_7 0
Core_3_L1I_acc_level_8 0
Core_3_L1I_acc_level_9 0

Core_3_L2C_total_access 378
Core_3_L2C_total_hit 224
Core_3_L2C_total_miss 154
Core_3_L2C_loads 128
Core_3_L2C_load_hit 77
Core_3_L2C_load_miss 51
Core_3_L2C_RFOs 9
Core_3_L2C_RFO_hit 1
Core_3_L2C_RFO_miss 8
Core_3_L2C_prefetches 229
Core_3_L2C_prefetch_hit 134
Core_3_L2C_prefetch_miss 95
Core_3_L2C_writebacks 12
Core_3_L2C_writeback_hit 12
Core_3_L2C_writeback_miss 0
Core_3_L2C_prefetch_requested 1232
Core_3_L2C_prefetch_dropped 0
Core_3_L2C_prefetch_issued 1232
Core_3_L2C_prefetch_filled 647
Core_3_L2C_prefetch_useful 270
Core_3_L2C_prefetch_useless 0
Core_3_L2C_prefetch_late 22
Core_3_L2C_average_miss_latency 192.38961

Core_3_L2C_rq_access 137
Core_3_L2C_rq_forward 0
Core_3_L2C_rq_merged 0
Core_3_L2C_rq_to_cache 137
Core_3_L2C_rq_full 0

Core_3_L2C_wq_access 12
Core_3_L2C_wq_forward 0
Core_3_L2C_wq_merged 0
Core_3_L2C_wq_to_cache 12
Core_3_L2C_wq_full 0

Core_3_L2C_pq_access 1232
Core_3_L2C_pq_forward 0
Core_3_L2C_pq_merged 39
Core_3_L2C_pq_to_cache 1193
Core_3_L2C_pq_full 0

Core_3_L2C_acc_epochs 367736
Core_3_L2C_acc_level_0 367701
Core_3_L2C_acc_level_1 11
Core_3_L2C_acc_level_2 7
Core_3_L2C_acc_level_3 5
Core_3_L2C_acc_level_4 7
Core_3_L2C_acc_level_5 3
Core_3_L2C_acc_level_6 1
Core_3_L2C_acc_level_7 1
Core_3_L2C_acc_level_8 0
Core_3_L2C_acc_level_9 0

Core_3_LLC_total_access 154
Core_3_LLC_total_hit 0
Core_3_LLC_total_miss 154
Core_3_LLC_loads 47
Core_3_LLC_load_hit 0
Core_3_LLC_load_miss 47
Core_3_LLC_RFOs 8
Core_3_LLC_RFO_hit 0
Core_3_LLC_RFO_miss 8
Core_3_LLC_prefetches 99
Core_3_LLC_prefetch_hit 0
Core_3_LLC_prefetch_miss 99
Core_3_LLC_writebacks 0
Core_3_LLC_writeback_hit 0
Core_3_LLC_writeback_miss 0
Core_3_LLC_prefetch_requested 0
Core_3_LLC_prefetch_dropped 0
Core_3_LLC_prefetch_issued 0
Core_3_LLC_prefetch_filled 2189238
Core_3_LLC_prefetch_useful 159757
Core_3_LLC_prefetch_useless 1943468
Core_3_LLC_prefetch_late 0
Core_3_LLC_average_miss_latency 2055699.64935

Core_3_LLC_rq_access 914697
Core_3_LLC_rq_forward 0
Core_3_LLC_rq_merged 0
Core_3_LLC_rq_to_cache 914697
Core_3_LLC_rq_full 0

Core_3_LLC_wq_access 775566
Core_3_LLC_wq_forward 0
Core_3_LLC_wq_merged 0
Core_3_LLC_wq_to_cache 775566
Core_3_LLC_wq_full 0

Core_3_LLC_pq_access 3298306
Core_3_LLC_pq_forward 0
Core_3_LLC_pq_merged 0
Core_3_LLC_pq_to_cache 3298306
Core_3_LLC_pq_full 0

Core_3_LLC_acc_epochs 367824
Core_3_LLC_acc_level_0 309268
Core_3_LLC_acc_level_1 13531
Core_3_LLC_acc_level_2 8995
Core_3_LLC_acc_level_3 5153
Core_3_LLC_acc_level_4 3008
Core_3_LLC_acc_level_5 6131
Core_3_LLC_acc_level_6 2927
Core_3_LLC_acc_level_7 2569
Core_3_LLC_acc_level_8 1906
Core_3_LLC_acc_level_9 14336

Core_3_major_page_fault 0
Core_3_minor_page_fault 123

[CoopPythia Stats]
 - Useful prefetches: 2641213
 - Final alpha: 0.10000
[CoopPythia Stats]
 - Useful prefetches: 2641213
 - Final alpha: 0.10000
[CoopPythia Stats]
 - Useful prefetches: 2641213
 - Final alpha: 0.10000
[CoopPythia Stats]
 - Useful prefetches: 2641213
 - Final alpha: 0.10000
Channel_0_RQ_row_buffer_hit 381381
Channel_0_RQ_row_buffer_miss 628337
Channel_0_WQ_row_buffer_hit 125041
Channel_0_WQ_row_buffer_miss 235044
Channel_0_WQ_full 0
Channel_0_dbus_congested 347270

Channel_1_RQ_row_buffer_hit 378173
Channel_1_RQ_row_buffer_miss 631507
Channel_1_WQ_row_buffer_hit 126301
Channel_1_WQ_row_buffer_miss 233729
Channel_1_WQ_full 0
Channel_1_dbus_congested 346033

avg_congested_cycle 9

DRAM_bw_pochs 1471294
DRAM_bw_level_0 1404051
DRAM_bw_level_1 49260
DRAM_bw_level_2 12394
DRAM_bw_level_3 5589
