*************************************************
   ChampSim Multicore Out-of-Order Simulator
   Last compiled: Apr 16 2025 08:14:40
*************************************************
parsing config file: /pref/Pythia/config/coop_pythia.ini

trace_0 /pref/Pythia/NUTCH/traces/nutch_phase1_core0.trace.xz
trace_1 /pref/Pythia/NUTCH/traces/nutch_phase1_core1.trace.xz
trace_2 /pref/Pythia/NUTCH/traces/nutch_phase1_core2.trace.xz
trace_3 /pref/Pythia/NUTCH/traces/nutch_phase1_core3.trace.xz
CPU 0 Bimodal branch predictor
CPU 1 Bimodal branch predictor
CPU 2 Bimodal branch predictor
CPU 3 Bimodal branch predictor
warmup_instructions 50000000
simulation_instructions 150000000
champsim_seed 7154
measure_ipc 0
measure_ipc_epoch 1000
measure_dram_bw 1
measure_dram_bw_epoch 256
measure_cache_acc 1
measure_cache_acc_epoch 1024
l1d_perfect 0
l2c_perfect 0
llc_perfect 0
l1d_semi_perfect 0
l2c_semi_perfect 0
llc_semi_perfect 0
semi_perfect_cache_page_buffer_size 64

num_cpus 4
cpu_freq 4000
dram_io_freq 2400
page_size 4096
block_size 64
max_read_per_cycle 8
max_fill_per_cycle 1
dram_channels 2
log2_dram_channels 1
dram_ranks 1
dram_banks 8
dram_rows 65536
dram_columns 128
dram_row_size 8
dram_size 8192
dram_pages 2097152
======= Prefetcher Knob Settings =======
coop_enable_multicore: 1
coop_enable_bw_throttling: 1
coop_rl_enable: 1
coop_rl_ipc_threshold: 
coop_rl_alpha_high_ipc: 0.1
coop_rl_alpha_low_ipc: 0.02
coop_rl_bw_threshold: 2
========================================
fetch_width 6
decode_width 6
exec_width 4
lq_width 2
sq_width 2
retire_width 4
scheduler_size 128
branch_mispredict_penalty 20
rob_size 256
lq_size 72
sq_size 56
num_instr_destinations_sparc 4
num_instr_destinations 2
num_instr_sources 4

itlb_set 16
itlb_way 8
itlb_rq_size 16
itlb_wq_size 16
itlb_pq_size 0
itlb_mshr_size 8
itlb_latency 1

dtlb_set 16
dtlb_way 4
dtlb_rq_size 16
dtlb_wq_size 16
dtlb_pq_size 0
dtlb_mshr_size 8
dtlb_latency 1

stlb_set 128
stlb_way 12
stlb_rq_size 32
stlb_wq_size 32
stlb_pq_size 0
stlb_mshr_size 16
stlb_latency 8

l1i_size 32
l1i_set 64
l1i_way 8
l1i_rq_size 64
l1i_wq_size 64
l1i_pq_size 8
l1i_mshr_size 8
l1i_latency 1

l1d_size 32
l1d_set 64
l1d_way 8
l1d_rq_size 64
l1d_wq_size 64
l1d_pq_size 16
l1d_mshr_size 16
l1d_latency 4

l2c_size 256
l2c_set 512
l2c_way 8
l2c_rq_size 64
l2c_wq_size 32
l2c_pq_size 64
l2c_mshr_size 64
l2c_latency 10

llc_size 8192
llc_set 8192
llc_way 16
llc_rq_size 256
llc_wq_size 256
llc_pq_size 128
llc_mshr_size 256
llc_latency 20

dram_channel_width 8
dram_wq_size 64
dram_rq_size 64
tRP 15
tRCD 15
tCAS 12.5
dram_dbus_turn_around_time 30
dram_write_high_wm 56
dram_write_low_wm 48
min_dram_writes_per_switch 16
dram_mtps 2400
dram_dbus_return_time 13

[CoopPythia Config]
 - Bandwidth-aware throttling: Enabled
 - Multicore cooperation: Enabled
 - RL Enabled: Yes
 - Adaptive Alpha: Enabled
 - IPC Threshold: 5
 - BW Threshold: 2
 - Alpha High: 0.1
 - Alpha Low: 0.02

Heartbeat CPU  3 instructions:    1000001 cycles:     587944 heartbeat IPC: 1.70084 cumulative IPC: 1.70084 (Simulation time: 0 hr 0 min 5 sec) 
Heartbeat CPU  2 instructions:    1000002 cycles:     598364 heartbeat IPC: 1.67123 cumulative IPC: 1.67123 (Simulation time: 0 hr 0 min 5 sec) 
Heartbeat CPU  1 instructions:    1000001 cycles:     622442 heartbeat IPC: 1.60658 cumulative IPC: 1.60658 (Simulation time: 0 hr 0 min 5 sec) 
Heartbeat CPU  0 instructions:    1000002 cycles:     733657 heartbeat IPC: 1.36304 cumulative IPC: 1.36304 (Simulation time: 0 hr 0 min 6 sec) 
Heartbeat CPU  3 instructions:    2000001 cycles:    1128739 heartbeat IPC: 1.84913 cumulative IPC: 1.77189 (Simulation time: 0 hr 0 min 10 sec) 
Heartbeat CPU  1 instructions:    2000001 cycles:    1149026 heartbeat IPC: 1.89903 cumulative IPC: 1.74061 (Simulation time: 0 hr 0 min 10 sec) 
Heartbeat CPU  0 instructions:    2000000 cycles:    1242366 heartbeat IPC: 1.96576 cumulative IPC: 1.60983 (Simulation time: 0 hr 0 min 11 sec) 
Heartbeat CPU  2 instructions:    2000002 cycles:    1251791 heartbeat IPC: 1.53039 cumulative IPC: 1.59771 (Simulation time: 0 hr 0 min 11 sec) 
Heartbeat CPU  0 instructions:    3000001 cycles:    1836514 heartbeat IPC: 1.68308 cumulative IPC: 1.63353 (Simulation time: 0 hr 0 min 15 sec) 
Heartbeat CPU  3 instructions:    3000002 cycles:    1843106 heartbeat IPC: 1.39984 cumulative IPC: 1.62769 (Simulation time: 0 hr 0 min 15 sec) 
Heartbeat CPU  1 instructions:    3000003 cycles:    1901250 heartbeat IPC: 1.32939 cumulative IPC: 1.57791 (Simulation time: 0 hr 0 min 16 sec) 
Heartbeat CPU  2 instructions:    3000003 cycles:    1930090 heartbeat IPC: 1.47428 cumulative IPC: 1.55433 (Simulation time: 0 hr 0 min 16 sec) 
Heartbeat CPU  3 instructions:    4000000 cycles:    2399153 heartbeat IPC: 1.79841 cumulative IPC: 1.66726 (Simulation time: 0 hr 0 min 19 sec) 
Heartbeat CPU  1 instructions:    4000000 cycles:    2430359 heartbeat IPC: 1.88996 cumulative IPC: 1.64585 (Simulation time: 0 hr 0 min 19 sec) 
Heartbeat CPU  2 instructions:    4000000 cycles:    2514012 heartbeat IPC: 1.71255 cumulative IPC: 1.59108 (Simulation time: 0 hr 0 min 20 sec) 
Heartbeat CPU  0 instructions:    4000000 cycles:    2558774 heartbeat IPC: 1.38454 cumulative IPC: 1.56325 (Simulation time: 0 hr 0 min 20 sec) 
Heartbeat CPU  3 instructions:    5000001 cycles:    2975331 heartbeat IPC: 1.73558 cumulative IPC: 1.68049 (Simulation time: 0 hr 0 min 24 sec) 
Heartbeat CPU  1 instructions:    5000000 cycles:    3034411 heartbeat IPC: 1.65549 cumulative IPC: 1.64777 (Simulation time: 0 hr 0 min 24 sec) 
Heartbeat CPU  2 instructions:    5000000 cycles:    3086142 heartbeat IPC: 1.74785 cumulative IPC: 1.62015 (Simulation time: 0 hr 0 min 24 sec) 
Heartbeat CPU  0 instructions:    5000000 cycles:    3089525 heartbeat IPC: 1.88412 cumulative IPC: 1.61837 (Simulation time: 0 hr 0 min 24 sec) 
Heartbeat CPU  3 instructions:    6000003 cycles:    3546070 heartbeat IPC: 1.75212 cumulative IPC: 1.69201 (Simulation time: 0 hr 0 min 28 sec) 
Heartbeat CPU  1 instructions:    6000000 cycles:    3636406 heartbeat IPC: 1.66114 cumulative IPC: 1.64998 (Simulation time: 0 hr 0 min 28 sec) 
Heartbeat CPU  0 instructions:    6000003 cycles:    3693206 heartbeat IPC: 1.65651 cumulative IPC: 1.62461 (Simulation time: 0 hr 0 min 29 sec) 
Heartbeat CPU  2 instructions:    6000003 cycles:    3696653 heartbeat IPC: 1.63798 cumulative IPC: 1.62309 (Simulation time: 0 hr 0 min 29 sec) 
Heartbeat CPU  3 instructions:    7000002 cycles:    4110919 heartbeat IPC: 1.77038 cumulative IPC: 1.70278 (Simulation time: 0 hr 0 min 32 sec) 
Heartbeat CPU  1 instructions:    7000000 cycles:    4238821 heartbeat IPC: 1.65999 cumulative IPC: 1.65140 (Simulation time: 0 hr 0 min 33 sec) 
Heartbeat CPU  0 instructions:    7000000 cycles:    4295885 heartbeat IPC: 1.65925 cumulative IPC: 1.62947 (Simulation time: 0 hr 0 min 33 sec) 
Heartbeat CPU  2 instructions:    7000003 cycles:    4305038 heartbeat IPC: 1.64370 cumulative IPC: 1.62600 (Simulation time: 0 hr 0 min 33 sec) 
Heartbeat CPU  3 instructions:    8000000 cycles:    4715569 heartbeat IPC: 1.65385 cumulative IPC: 1.69651 (Simulation time: 0 hr 0 min 36 sec) 
Heartbeat CPU  1 instructions:    8000000 cycles:    4842272 heartbeat IPC: 1.65714 cumulative IPC: 1.65212 (Simulation time: 0 hr 0 min 37 sec) 
Heartbeat CPU  2 instructions:    8000000 cycles:    4896661 heartbeat IPC: 1.69026 cumulative IPC: 1.63377 (Simulation time: 0 hr 0 min 38 sec) 
Heartbeat CPU  0 instructions:    8000000 cycles:    4902481 heartbeat IPC: 1.64854 cumulative IPC: 1.63183 (Simulation time: 0 hr 0 min 38 sec) 
Heartbeat CPU  3 instructions:    9000002 cycles:    5294425 heartbeat IPC: 1.72755 cumulative IPC: 1.69990 (Simulation time: 0 hr 0 min 41 sec) 
Heartbeat CPU  1 instructions:    9000003 cycles:    5447848 heartbeat IPC: 1.65133 cumulative IPC: 1.65203 (Simulation time: 0 hr 0 min 42 sec) 
Heartbeat CPU  2 instructions:    9000003 cycles:    5457993 heartbeat IPC: 1.78148 cumulative IPC: 1.64896 (Simulation time: 0 hr 0 min 42 sec) 
Heartbeat CPU  0 instructions:    9000001 cycles:    5501872 heartbeat IPC: 1.66836 cumulative IPC: 1.63581 (Simulation time: 0 hr 0 min 43 sec) 
Heartbeat CPU  3 instructions:   10000003 cycles:    5888561 heartbeat IPC: 1.68312 cumulative IPC: 1.69821 (Simulation time: 0 hr 0 min 46 sec) 
Heartbeat CPU  2 instructions:   10000000 cycles:    6006622 heartbeat IPC: 1.82272 cumulative IPC: 1.66483 (Simulation time: 0 hr 0 min 47 sec) 
Heartbeat CPU  1 instructions:   10000001 cycles:    6048476 heartbeat IPC: 1.66492 cumulative IPC: 1.65331 (Simulation time: 0 hr 0 min 47 sec) 
Heartbeat CPU  0 instructions:   10000001 cycles:    6105459 heartbeat IPC: 1.65676 cumulative IPC: 1.63788 (Simulation time: 0 hr 0 min 47 sec) 
Heartbeat CPU  3 instructions:   11000003 cycles:    6474126 heartbeat IPC: 1.70775 cumulative IPC: 1.69907 (Simulation time: 0 hr 0 min 51 sec) 
Heartbeat CPU  2 instructions:   11000000 cycles:    6569250 heartbeat IPC: 1.77737 cumulative IPC: 1.67447 (Simulation time: 0 hr 0 min 51 sec) 
Heartbeat CPU  1 instructions:   11000001 cycles:    6574504 heartbeat IPC: 1.90104 cumulative IPC: 1.67313 (Simulation time: 0 hr 0 min 52 sec) 
Heartbeat CPU  0 instructions:   11000001 cycles:    6696939 heartbeat IPC: 1.69067 cumulative IPC: 1.64254 (Simulation time: 0 hr 0 min 53 sec) 
Heartbeat CPU  3 instructions:   12000000 cycles:    7043056 heartbeat IPC: 1.75768 cumulative IPC: 1.70381 (Simulation time: 0 hr 0 min 56 sec) 
Heartbeat CPU  1 instructions:   12000000 cycles:    7111984 heartbeat IPC: 1.86053 cumulative IPC: 1.68729 (Simulation time: 0 hr 0 min 56 sec) 
Heartbeat CPU  2 instructions:   12000000 cycles:    7124126 heartbeat IPC: 1.80220 cumulative IPC: 1.68442 (Simulation time: 0 hr 0 min 56 sec) 
Heartbeat CPU  0 instructions:   12000000 cycles:    7257342 heartbeat IPC: 1.78443 cumulative IPC: 1.65350 (Simulation time: 0 hr 0 min 57 sec) 
Heartbeat CPU  3 instructions:   13000000 cycles:    7632645 heartbeat IPC: 1.69610 cumulative IPC: 1.70321 (Simulation time: 0 hr 1 min 1 sec) 
Heartbeat CPU  2 instructions:   13000003 cycles:    7683560 heartbeat IPC: 1.78753 cumulative IPC: 1.69192 (Simulation time: 0 hr 1 min 1 sec) 
Heartbeat CPU  1 instructions:   13000001 cycles:    7726611 heartbeat IPC: 1.62700 cumulative IPC: 1.68250 (Simulation time: 0 hr 1 min 1 sec) 
Heartbeat CPU  0 instructions:   13000001 cycles:    7833571 heartbeat IPC: 1.73542 cumulative IPC: 1.65952 (Simulation time: 0 hr 1 min 2 sec) 
Heartbeat CPU  3 instructions:   14000000 cycles:    8229583 heartbeat IPC: 1.67522 cumulative IPC: 1.70118 (Simulation time: 0 hr 1 min 5 sec) 
Heartbeat CPU  1 instructions:   14000003 cycles:    8268400 heartbeat IPC: 1.84574 cumulative IPC: 1.69319 (Simulation time: 0 hr 1 min 6 sec) 
Heartbeat CPU  2 instructions:   14000001 cycles:    8311252 heartbeat IPC: 1.59313 cumulative IPC: 1.68446 (Simulation time: 0 hr 1 min 6 sec) 
Heartbeat CPU  0 instructions:   14000002 cycles:    8419811 heartbeat IPC: 1.70579 cumulative IPC: 1.66275 (Simulation time: 0 hr 1 min 7 sec) 
Heartbeat CPU  3 instructions:   15000000 cycles:    8781703 heartbeat IPC: 1.81120 cumulative IPC: 1.70810 (Simulation time: 0 hr 1 min 10 sec) 
Heartbeat CPU  2 instructions:   15000000 cycles:    8832198 heartbeat IPC: 1.91958 cumulative IPC: 1.69833 (Simulation time: 0 hr 1 min 10 sec) 
Heartbeat CPU  1 instructions:   15000002 cycles:    8908150 heartbeat IPC: 1.56311 cumulative IPC: 1.68385 (Simulation time: 0 hr 1 min 11 sec) 
Heartbeat CPU  0 instructions:   15000002 cycles:    9015544 heartbeat IPC: 1.67860 cumulative IPC: 1.66379 (Simulation time: 0 hr 1 min 12 sec) 
Heartbeat CPU  3 instructions:   16000000 cycles:    9322893 heartbeat IPC: 1.84778 cumulative IPC: 1.71621 (Simulation time: 0 hr 1 min 14 sec) 
Heartbeat CPU  2 instructions:   16000000 cycles:    9360290 heartbeat IPC: 1.89361 cumulative IPC: 1.70935 (Simulation time: 0 hr 1 min 15 sec) 
Heartbeat CPU  1 instructions:   16000000 cycles:    9470352 heartbeat IPC: 1.77872 cumulative IPC: 1.68948 (Simulation time: 0 hr 1 min 16 sec) 
Heartbeat CPU  0 instructions:   16000000 cycles:    9622581 heartbeat IPC: 1.64734 cumulative IPC: 1.66276 (Simulation time: 0 hr 1 min 17 sec) 
Heartbeat CPU  3 instructions:   17000003 cycles:    9884364 heartbeat IPC: 1.78104 cumulative IPC: 1.71989 (Simulation time: 0 hr 1 min 19 sec) 
Heartbeat CPU  2 instructions:   17000003 cycles:    9915537 heartbeat IPC: 1.80101 cumulative IPC: 1.71448 (Simulation time: 0 hr 1 min 19 sec) 
Heartbeat CPU  1 instructions:   17000003 cycles:    9970422 heartbeat IPC: 1.99973 cumulative IPC: 1.70504 (Simulation time: 0 hr 1 min 20 sec) 
Heartbeat CPU  0 instructions:   17000000 cycles:   10238375 heartbeat IPC: 1.62392 cumulative IPC: 1.66042 (Simulation time: 0 hr 1 min 22 sec) 
Heartbeat CPU  2 instructions:   18000001 cycles:   10468822 heartbeat IPC: 1.80738 cumulative IPC: 1.71939 (Simulation time: 0 hr 1 min 24 sec) 
Heartbeat CPU  3 instructions:   18000002 cycles:   10478232 heartbeat IPC: 1.68387 cumulative IPC: 1.71785 (Simulation time: 0 hr 1 min 24 sec) 
Heartbeat CPU  1 instructions:   18000001 cycles:   10484793 heartbeat IPC: 1.94412 cumulative IPC: 1.71677 (Simulation time: 0 hr 1 min 24 sec) 
Heartbeat CPU  0 instructions:   18000000 cycles:   10838529 heartbeat IPC: 1.66624 cumulative IPC: 1.66074 (Simulation time: 0 hr 1 min 27 sec) 
Heartbeat CPU  1 instructions:   19000000 cycles:   11018427 heartbeat IPC: 1.87394 cumulative IPC: 1.72438 (Simulation time: 0 hr 1 min 28 sec) 
Heartbeat CPU  2 instructions:   19000003 cycles:   11066471 heartbeat IPC: 1.67323 cumulative IPC: 1.71690 (Simulation time: 0 hr 1 min 28 sec) 
Heartbeat CPU  3 instructions:   19000002 cycles:   11077127 heartbeat IPC: 1.66974 cumulative IPC: 1.71525 (Simulation time: 0 hr 1 min 29 sec) 
Heartbeat CPU  0 instructions:   19000003 cycles:   11416732 heartbeat IPC: 1.72950 cumulative IPC: 1.66422 (Simulation time: 0 hr 1 min 31 sec) 
Heartbeat CPU  1 instructions:   20000000 cycles:   11555851 heartbeat IPC: 1.86073 cumulative IPC: 1.73072 (Simulation time: 0 hr 1 min 32 sec) 
Heartbeat CPU  2 instructions:   20000000 cycles:   11654163 heartbeat IPC: 1.70157 cumulative IPC: 1.71613 (Simulation time: 0 hr 1 min 33 sec) 
Heartbeat CPU  3 instructions:   20000000 cycles:   11658432 heartbeat IPC: 1.72026 cumulative IPC: 1.71550 (Simulation time: 0 hr 1 min 33 sec) 
Heartbeat CPU  0 instructions:   20000000 cycles:   11990768 heartbeat IPC: 1.74205 cumulative IPC: 1.66795 (Simulation time: 0 hr 1 min 36 sec) 
Heartbeat CPU  1 instructions:   21000003 cycles:   12166110 heartbeat IPC: 1.63865 cumulative IPC: 1.72611 (Simulation time: 0 hr 1 min 37 sec) 
Heartbeat CPU  2 instructions:   21000002 cycles:   12181573 heartbeat IPC: 1.89606 cumulative IPC: 1.72392 (Simulation time: 0 hr 1 min 37 sec) 
Heartbeat CPU  3 instructions:   21000002 cycles:   12332428 heartbeat IPC: 1.48369 cumulative IPC: 1.70283 (Simulation time: 0 hr 1 min 39 sec) 
Heartbeat CPU  0 instructions:   21000002 cycles:   12553639 heartbeat IPC: 1.77661 cumulative IPC: 1.67282 (Simulation time: 0 hr 1 min 40 sec) 
Heartbeat CPU  1 instructions:   22000000 cycles:   12691550 heartbeat IPC: 1.90316 cumulative IPC: 1.73344 (Simulation time: 0 hr 1 min 42 sec) 
Heartbeat CPU  2 instructions:   22000002 cycles:   12718586 heartbeat IPC: 1.86215 cumulative IPC: 1.72975 (Simulation time: 0 hr 1 min 42 sec) 
Heartbeat CPU  3 instructions:   22000000 cycles:   12969207 heartbeat IPC: 1.57040 cumulative IPC: 1.69633 (Simulation time: 0 hr 1 min 44 sec) 
Heartbeat CPU  0 instructions:   22000002 cycles:   13121709 heartbeat IPC: 1.76035 cumulative IPC: 1.67661 (Simulation time: 0 hr 1 min 46 sec) 
Heartbeat CPU  1 instructions:   23000000 cycles:   13229284 heartbeat IPC: 1.85966 cumulative IPC: 1.73857 (Simulation time: 0 hr 1 min 47 sec) 
Heartbeat CPU  2 instructions:   23000003 cycles:   13272970 heartbeat IPC: 1.80381 cumulative IPC: 1.73285 (Simulation time: 0 hr 1 min 47 sec) 
Heartbeat CPU  3 instructions:   23000000 cycles:   13598016 heartbeat IPC: 1.59031 cumulative IPC: 1.69142 (Simulation time: 0 hr 1 min 50 sec) 
Heartbeat CPU  0 instructions:   23000002 cycles:   13687705 heartbeat IPC: 1.76680 cumulative IPC: 1.68034 (Simulation time: 0 hr 1 min 51 sec) 
Heartbeat CPU  1 instructions:   24000000 cycles:   13760961 heartbeat IPC: 1.88084 cumulative IPC: 1.74406 (Simulation time: 0 hr 1 min 51 sec) 
Heartbeat CPU  2 instructions:   24000000 cycles:   13825750 heartbeat IPC: 1.80903 cumulative IPC: 1.73589 (Simulation time: 0 hr 1 min 52 sec) 
Heartbeat CPU  3 instructions:   24000000 cycles:   14181167 heartbeat IPC: 1.71482 cumulative IPC: 1.69239 (Simulation time: 0 hr 1 min 55 sec) 
Heartbeat CPU  0 instructions:   24000000 cycles:   14232268 heartbeat IPC: 1.83633 cumulative IPC: 1.68631 (Simulation time: 0 hr 1 min 55 sec) 
Heartbeat CPU  1 instructions:   25000003 cycles:   14300815 heartbeat IPC: 1.85236 cumulative IPC: 1.74815 (Simulation time: 0 hr 1 min 56 sec) 
Heartbeat CPU  2 instructions:   25000000 cycles:   14366728 heartbeat IPC: 1.84850 cumulative IPC: 1.74013 (Simulation time: 0 hr 1 min 57 sec) 
Heartbeat CPU  0 instructions:   25000000 cycles:   14772785 heartbeat IPC: 1.85008 cumulative IPC: 1.69230 (Simulation time: 0 hr 2 min 0 sec) 
Heartbeat CPU  3 instructions:   25000000 cycles:   14786118 heartbeat IPC: 1.65303 cumulative IPC: 1.69078 (Simulation time: 0 hr 2 min 0 sec) 
Heartbeat CPU  2 instructions:   26000000 cycles:   14973870 heartbeat IPC: 1.64706 cumulative IPC: 1.73636 (Simulation time: 0 hr 2 min 1 sec) 
Heartbeat CPU  1 instructions:   26000000 cycles:   14982690 heartbeat IPC: 1.46654 cumulative IPC: 1.73534 (Simulation time: 0 hr 2 min 2 sec) 
Heartbeat CPU  3 instructions:   26000001 cycles:   15363296 heartbeat IPC: 1.73257 cumulative IPC: 1.69235 (Simulation time: 0 hr 2 min 5 sec) 
Heartbeat CPU  0 instructions:   26000000 cycles:   15411934 heartbeat IPC: 1.56458 cumulative IPC: 1.68700 (Simulation time: 0 hr 2 min 5 sec) 
Heartbeat CPU  2 instructions:   27000003 cycles:   15546219 heartbeat IPC: 1.74719 cumulative IPC: 1.73676 (Simulation time: 0 hr 2 min 6 sec) 
Heartbeat CPU  1 instructions:   27000000 cycles:   15634216 heartbeat IPC: 1.53486 cumulative IPC: 1.72698 (Simulation time: 0 hr 2 min 7 sec) 
Heartbeat CPU  3 instructions:   27000000 cycles:   15890377 heartbeat IPC: 1.89724 cumulative IPC: 1.69914 (Simulation time: 0 hr 2 min 9 sec) 
Heartbeat CPU  2 instructions:   28000000 cycles:   16080613 heartbeat IPC: 1.87127 cumulative IPC: 1.74123 (Simulation time: 0 hr 2 min 10 sec) 
Heartbeat CPU  1 instructions:   28000000 cycles:   16213350 heartbeat IPC: 1.72672 cumulative IPC: 1.72697 (Simulation time: 0 hr 2 min 11 sec) 
Heartbeat CPU  0 instructions:   27000001 cycles:   16289928 heartbeat IPC: 1.13896 cumulative IPC: 1.65747 (Simulation time: 0 hr 2 min 12 sec) 
Heartbeat CPU  2 instructions:   29000000 cycles:   16641361 heartbeat IPC: 1.78333 cumulative IPC: 1.74265 (Simulation time: 0 hr 2 min 14 sec) 
Heartbeat CPU  3 instructions:   28000000 cycles:   16694922 heartbeat IPC: 1.24294 cumulative IPC: 1.67716 (Simulation time: 0 hr 2 min 15 sec) 
Heartbeat CPU  0 instructions:   28000000 cycles:   16740148 heartbeat IPC: 2.22113 cumulative IPC: 1.67263 (Simulation time: 0 hr 2 min 15 sec) 
Heartbeat CPU  1 instructions:   29000000 cycles:   16811972 heartbeat IPC: 1.67050 cumulative IPC: 1.72496 (Simulation time: 0 hr 2 min 15 sec) 
Heartbeat CPU  2 instructions:   30000000 cycles:   17193263 heartbeat IPC: 1.81192 cumulative IPC: 1.74487 (Simulation time: 0 hr 2 min 19 sec) 
Heartbeat CPU  0 instructions:   29000002 cycles:   17273098 heartbeat IPC: 1.87635 cumulative IPC: 1.67891 (Simulation time: 0 hr 2 min 19 sec) 
Heartbeat CPU  1 instructions:   30000001 cycles:   17413791 heartbeat IPC: 1.66163 cumulative IPC: 1.72277 (Simulation time: 0 hr 2 min 20 sec) 
Heartbeat CPU  3 instructions:   29000001 cycles:   17439891 heartbeat IPC: 1.34234 cumulative IPC: 1.66285 (Simulation time: 0 hr 2 min 20 sec) 
Heartbeat CPU  2 instructions:   31000003 cycles:   17773148 heartbeat IPC: 1.72449 cumulative IPC: 1.74420 (Simulation time: 0 hr 2 min 23 sec) 
Heartbeat CPU  0 instructions:   30000002 cycles:   17876916 heartbeat IPC: 1.65613 cumulative IPC: 1.67814 (Simulation time: 0 hr 2 min 24 sec) 
Heartbeat CPU  1 instructions:   31000000 cycles:   18016883 heartbeat IPC: 1.65812 cumulative IPC: 1.72061 (Simulation time: 0 hr 2 min 25 sec) 
Heartbeat CPU  3 instructions:   30000003 cycles:   18150867 heartbeat IPC: 1.40652 cumulative IPC: 1.65281 (Simulation time: 0 hr 2 min 26 sec) 
Heartbeat CPU  2 instructions:   32000000 cycles:   18326534 heartbeat IPC: 1.80705 cumulative IPC: 1.74610 (Simulation time: 0 hr 2 min 27 sec) 
Heartbeat CPU  0 instructions:   31000001 cycles:   18481921 heartbeat IPC: 1.65288 cumulative IPC: 1.67731 (Simulation time: 0 hr 2 min 28 sec) 
Heartbeat CPU  1 instructions:   32000000 cycles:   18624554 heartbeat IPC: 1.64563 cumulative IPC: 1.71816 (Simulation time: 0 hr 2 min 29 sec) 
Heartbeat CPU  3 instructions:   31000003 cycles:   18639137 heartbeat IPC: 2.04805 cumulative IPC: 1.66317 (Simulation time: 0 hr 2 min 30 sec) 
Heartbeat CPU  2 instructions:   33000001 cycles:   18945829 heartbeat IPC: 1.61474 cumulative IPC: 1.74181 (Simulation time: 0 hr 2 min 32 sec) 
Heartbeat CPU  0 instructions:   32000000 cycles:   19083965 heartbeat IPC: 1.66101 cumulative IPC: 1.67680 (Simulation time: 0 hr 2 min 33 sec) 
Heartbeat CPU  1 instructions:   33000001 cycles:   19221701 heartbeat IPC: 1.67463 cumulative IPC: 1.71681 (Simulation time: 0 hr 2 min 34 sec) 
Heartbeat CPU  3 instructions:   32000000 cycles:   19243330 heartbeat IPC: 1.65510 cumulative IPC: 1.66291 (Simulation time: 0 hr 2 min 34 sec) 
Heartbeat CPU  2 instructions:   34000003 cycles:   19539384 heartbeat IPC: 1.68477 cumulative IPC: 1.74008 (Simulation time: 0 hr 2 min 36 sec) 
Heartbeat CPU  0 instructions:   33000000 cycles:   19694762 heartbeat IPC: 1.63721 cumulative IPC: 1.67557 (Simulation time: 0 hr 2 min 37 sec) 
Heartbeat CPU  3 instructions:   33000000 cycles:   19856917 heartbeat IPC: 1.62976 cumulative IPC: 1.66189 (Simulation time: 0 hr 2 min 39 sec) 
Heartbeat CPU  1 instructions:   34000002 cycles:   19865588 heartbeat IPC: 1.55307 cumulative IPC: 1.71150 (Simulation time: 0 hr 2 min 39 sec) 
Heartbeat CPU  2 instructions:   35000001 cycles:   19979852 heartbeat IPC: 2.27031 cumulative IPC: 1.75176 (Simulation time: 0 hr 2 min 40 sec) 
Heartbeat CPU  0 instructions:   34000000 cycles:   20301039 heartbeat IPC: 1.64941 cumulative IPC: 1.67479 (Simulation time: 0 hr 2 min 42 sec) 
Heartbeat CPU  3 instructions:   34000000 cycles:   20458051 heartbeat IPC: 1.66352 cumulative IPC: 1.66194 (Simulation time: 0 hr 2 min 43 sec) 
Heartbeat CPU  2 instructions:   36000000 cycles:   20522338 heartbeat IPC: 1.84336 cumulative IPC: 1.75419 (Simulation time: 0 hr 2 min 44 sec) 
Heartbeat CPU  1 instructions:   35000002 cycles:   20571420 heartbeat IPC: 1.41677 cumulative IPC: 1.70139 (Simulation time: 0 hr 2 min 44 sec) 
Heartbeat CPU  0 instructions:   35000001 cycles:   20918378 heartbeat IPC: 1.61986 cumulative IPC: 1.67317 (Simulation time: 0 hr 2 min 46 sec) 
Heartbeat CPU  3 instructions:   35000001 cycles:   21060557 heartbeat IPC: 1.65974 cumulative IPC: 1.66187 (Simulation time: 0 hr 2 min 47 sec) 
Heartbeat CPU  2 instructions:   37000000 cycles:   21128494 heartbeat IPC: 1.64974 cumulative IPC: 1.75119 (Simulation time: 0 hr 2 min 48 sec) 
Heartbeat CPU  1 instructions:   36000000 cycles:   21290493 heartbeat IPC: 1.39068 cumulative IPC: 1.69090 (Simulation time: 0 hr 2 min 49 sec) 
Heartbeat CPU  0 instructions:   36000000 cycles:   21616934 heartbeat IPC: 1.43152 cumulative IPC: 1.66536 (Simulation time: 0 hr 2 min 52 sec) 
Heartbeat CPU  3 instructions:   36000000 cycles:   21665844 heartbeat IPC: 1.65211 cumulative IPC: 1.66160 (Simulation time: 0 hr 2 min 52 sec) 
Heartbeat CPU  1 instructions:   37000001 cycles:   21706982 heartbeat IPC: 2.40103 cumulative IPC: 1.70452 (Simulation time: 0 hr 2 min 52 sec) 
Heartbeat CPU  2 instructions:   38000002 cycles:   21724715 heartbeat IPC: 1.67723 cumulative IPC: 1.74916 (Simulation time: 0 hr 2 min 52 sec) 
Heartbeat CPU  0 instructions:   37000003 cycles:   22150836 heartbeat IPC: 1.87301 cumulative IPC: 1.67037 (Simulation time: 0 hr 2 min 56 sec) 
Heartbeat CPU  3 instructions:   37000003 cycles:   22299911 heartbeat IPC: 1.57713 cumulative IPC: 1.65920 (Simulation time: 0 hr 2 min 57 sec) 
Heartbeat CPU  1 instructions:   38000000 cycles:   22320593 heartbeat IPC: 1.62970 cumulative IPC: 1.70246 (Simulation time: 0 hr 2 min 57 sec) 
Heartbeat CPU  2 instructions:   39000000 cycles:   22321404 heartbeat IPC: 1.67591 cumulative IPC: 1.74720 (Simulation time: 0 hr 2 min 57 sec) 
Heartbeat CPU  0 instructions:   38000000 cycles:   22752452 heartbeat IPC: 1.66218 cumulative IPC: 1.67015 (Simulation time: 0 hr 3 min 0 sec) 
Heartbeat CPU  3 instructions:   38000002 cycles:   22846411 heartbeat IPC: 1.82982 cumulative IPC: 1.66328 (Simulation time: 0 hr 3 min 1 sec) 
Heartbeat CPU  2 instructions:   40000000 cycles:   22923366 heartbeat IPC: 1.66123 cumulative IPC: 1.74494 (Simulation time: 0 hr 3 min 2 sec) 
Heartbeat CPU  1 instructions:   39000003 cycles:   22924623 heartbeat IPC: 1.65555 cumulative IPC: 1.70123 (Simulation time: 0 hr 3 min 2 sec) 
Heartbeat CPU  0 instructions:   39000000 cycles:   23364679 heartbeat IPC: 1.63338 cumulative IPC: 1.66919 (Simulation time: 0 hr 3 min 5 sec) 
Heartbeat CPU  2 instructions:   41000000 cycles:   23522278 heartbeat IPC: 1.66969 cumulative IPC: 1.74303 (Simulation time: 0 hr 3 min 6 sec) 
Heartbeat CPU  1 instructions:   40000000 cycles:   23529361 heartbeat IPC: 1.65360 cumulative IPC: 1.70000 (Simulation time: 0 hr 3 min 6 sec) 
Heartbeat CPU  3 instructions:   39000002 cycles:   23651324 heartbeat IPC: 1.24237 cumulative IPC: 1.64896 (Simulation time: 0 hr 3 min 7 sec) 
Heartbeat CPU  0 instructions:   40000000 cycles:   23967390 heartbeat IPC: 1.65917 cumulative IPC: 1.66893 (Simulation time: 0 hr 3 min 9 sec) 
Heartbeat CPU  3 instructions:   40000000 cycles:   24105195 heartbeat IPC: 2.20326 cumulative IPC: 1.65939 (Simulation time: 0 hr 3 min 10 sec) 
Heartbeat CPU  1 instructions:   41000002 cycles:   24132235 heartbeat IPC: 1.65872 cumulative IPC: 1.69897 (Simulation time: 0 hr 3 min 10 sec) 
Heartbeat CPU  2 instructions:   42000000 cycles:   24144952 heartbeat IPC: 1.60598 cumulative IPC: 1.73949 (Simulation time: 0 hr 3 min 11 sec) 
Heartbeat CPU  0 instructions:   41000003 cycles:   24575445 heartbeat IPC: 1.64459 cumulative IPC: 1.66833 (Simulation time: 0 hr 3 min 14 sec) 
Heartbeat CPU  2 instructions:   43000000 cycles:   24655181 heartbeat IPC: 1.95990 cumulative IPC: 1.74406 (Simulation time: 0 hr 3 min 15 sec) 
Heartbeat CPU  3 instructions:   41000003 cycles:   24707252 heartbeat IPC: 1.66098 cumulative IPC: 1.65943 (Simulation time: 0 hr 3 min 15 sec) 
Heartbeat CPU  1 instructions:   42000002 cycles:   24758219 heartbeat IPC: 1.59748 cumulative IPC: 1.69641 (Simulation time: 0 hr 3 min 15 sec) 
Heartbeat CPU  0 instructions:   42000002 cycles:   25178119 heartbeat IPC: 1.65927 cumulative IPC: 1.66812 (Simulation time: 0 hr 3 min 19 sec) 
Heartbeat CPU  2 instructions:   44000000 cycles:   25178152 heartbeat IPC: 1.91215 cumulative IPC: 1.74755 (Simulation time: 0 hr 3 min 19 sec) 
Heartbeat CPU  1 instructions:   43000003 cycles:   25206050 heartbeat IPC: 2.23299 cumulative IPC: 1.70594 (Simulation time: 0 hr 3 min 19 sec) 
Heartbeat CPU  3 instructions:   42000002 cycles:   25312304 heartbeat IPC: 1.65275 cumulative IPC: 1.65927 (Simulation time: 0 hr 3 min 20 sec) 
Heartbeat CPU  3 instructions:   43000003 cycles:   25751597 heartbeat IPC: 2.27639 cumulative IPC: 1.66980 (Simulation time: 0 hr 3 min 24 sec) 
Heartbeat CPU  0 instructions:   43000003 cycles:   25799826 heartbeat IPC: 1.60848 cumulative IPC: 1.66668 (Simulation time: 0 hr 3 min 24 sec) 
Heartbeat CPU  1 instructions:   44000000 cycles:   25829495 heartbeat IPC: 1.60399 cumulative IPC: 1.70348 (Simulation time: 0 hr 3 min 24 sec) 
Heartbeat CPU  2 instructions:   45000002 cycles:   25963808 heartbeat IPC: 1.27282 cumulative IPC: 1.73318 (Simulation time: 0 hr 3 min 25 sec) 
Heartbeat CPU  0 instructions:   44000000 cycles:   26341490 heartbeat IPC: 1.84616 cumulative IPC: 1.67037 (Simulation time: 0 hr 3 min 28 sec) 
Heartbeat CPU  3 instructions:   44000000 cycles:   26350514 heartbeat IPC: 1.66968 cumulative IPC: 1.66980 (Simulation time: 0 hr 3 min 28 sec) 
Heartbeat CPU  1 instructions:   45000002 cycles:   26437506 heartbeat IPC: 1.64471 cumulative IPC: 1.70213 (Simulation time: 0 hr 3 min 29 sec) 
Heartbeat CPU  2 instructions:   46000001 cycles:   26586067 heartbeat IPC: 1.60705 cumulative IPC: 1.73023 (Simulation time: 0 hr 3 min 30 sec) 
Heartbeat CPU  3 instructions:   45000001 cycles:   26944510 heartbeat IPC: 1.68351 cumulative IPC: 1.67010 (Simulation time: 0 hr 3 min 33 sec) 
Heartbeat CPU  1 instructions:   46000002 cycles:   27016542 heartbeat IPC: 1.72701 cumulative IPC: 1.70266 (Simulation time: 0 hr 3 min 33 sec) 
Heartbeat CPU  2 instructions:   47000000 cycles:   27040062 heartbeat IPC: 2.20267 cumulative IPC: 1.73816 (Simulation time: 0 hr 3 min 33 sec) 
Heartbeat CPU  0 instructions:   45000001 cycles:   27151752 heartbeat IPC: 1.23417 cumulative IPC: 1.65735 (Simulation time: 0 hr 3 min 34 sec) 
Heartbeat CPU  3 instructions:   46000001 cycles:   27543535 heartbeat IPC: 1.66938 cumulative IPC: 1.67008 (Simulation time: 0 hr 3 min 37 sec) 
Heartbeat CPU  0 instructions:   46000000 cycles:   27604765 heartbeat IPC: 2.20744 cumulative IPC: 1.66638 (Simulation time: 0 hr 3 min 38 sec) 
Heartbeat CPU  2 instructions:   48000000 cycles:   27639956 heartbeat IPC: 1.66696 cumulative IPC: 1.73662 (Simulation time: 0 hr 3 min 38 sec) 
Heartbeat CPU  1 instructions:   47000000 cycles:   27644744 heartbeat IPC: 1.59184 cumulative IPC: 1.70014 (Simulation time: 0 hr 3 min 38 sec) 
Heartbeat CPU  3 instructions:   47000001 cycles:   28159655 heartbeat IPC: 1.62306 cumulative IPC: 1.66905 (Simulation time: 0 hr 3 min 42 sec) 
Heartbeat CPU  1 instructions:   48000000 cycles:   28205776 heartbeat IPC: 1.78243 cumulative IPC: 1.70178 (Simulation time: 0 hr 3 min 42 sec) 
Heartbeat CPU  0 instructions:   47000003 cycles:   28207697 heartbeat IPC: 1.65857 cumulative IPC: 1.66621 (Simulation time: 0 hr 3 min 43 sec) 
Heartbeat CPU  2 instructions:   49000000 cycles:   28238293 heartbeat IPC: 1.67130 cumulative IPC: 1.73523 (Simulation time: 0 hr 3 min 43 sec) 
Heartbeat CPU  1 instructions:   49000000 cycles:   28729431 heartbeat IPC: 1.90965 cumulative IPC: 1.70557 (Simulation time: 0 hr 3 min 47 sec) 
Heartbeat CPU  0 instructions:   48000000 cycles:   28809914 heartbeat IPC: 1.66053 cumulative IPC: 1.66609 (Simulation time: 0 hr 3 min 47 sec) 
Heartbeat CPU  2 instructions:   50000001 cycles:   28835945 heartbeat IPC: 1.67322 cumulative IPC: 1.73395 (Simulation time: 0 hr 3 min 47 sec) 
Heartbeat CPU  3 instructions:   48000000 cycles:   28865950 heartbeat IPC: 1.41584 cumulative IPC: 1.66286 (Simulation time: 0 hr 3 min 48 sec) 
Heartbeat CPU  1 instructions:   50000000 cycles:   29271337 heartbeat IPC: 1.84534 cumulative IPC: 1.70816 (Simulation time: 0 hr 3 min 51 sec) 
Heartbeat CPU  3 instructions:   49000000 cycles:   29373629 heartbeat IPC: 1.96975 cumulative IPC: 1.66816 (Simulation time: 0 hr 3 min 52 sec) 
Heartbeat CPU  0 instructions:   49000000 cycles:   29411860 heartbeat IPC: 1.66128 cumulative IPC: 1.66599 (Simulation time: 0 hr 3 min 52 sec) 
Heartbeat CPU  2 instructions:   51000000 cycles:   29433372 heartbeat IPC: 1.67384 cumulative IPC: 0.03398 (Simulation time: 0 hr 3 min 52 sec) 
Heartbeat CPU  1 instructions:   51000001 cycles:   29810833 heartbeat IPC: 1.85358 cumulative IPC: 0.03354 (Simulation time: 0 hr 3 min 55 sec) 
Heartbeat CPU  3 instructions:   50000000 cycles:   29970646 heartbeat IPC: 1.67499 cumulative IPC: 1.66830 (Simulation time: 0 hr 3 min 56 sec) 
Heartbeat CPU  0 instructions:   50000003 cycles:   30013546 heartbeat IPC: 1.66200 cumulative IPC: 1.66591 (Simulation time: 0 hr 3 min 57 sec) 

Warmup complete CPU  0 instructions:   50000003 cycles:   30013546 (Simulation time: 0 hr 3 min 57 sec) 
Warmup complete CPU  1 instructions:   51380031 cycles:   30013545 (Simulation time: 0 hr 3 min 57 sec) 
Warmup complete CPU  2 instructions:   51956063 cycles:   30013545 (Simulation time: 0 hr 3 min 57 sec) 
Warmup complete CPU  3 instructions:   50071299 cycles:   30013545 (Simulation time: 0 hr 3 min 57 sec) 

Heartbeat CPU  2 instructions:   52000000 cycles:   30156070 heartbeat IPC: 1.38370 cumulative IPC: 0.30828 (Simulation time: 0 hr 3 min 57 sec) 
Heartbeat CPU  1 instructions:   52000000 cycles:   31088226 heartbeat IPC: 0.78284 cumulative IPC: 0.57689 (Simulation time: 0 hr 3 min 59 sec) 
Heartbeat CPU  3 instructions:   51000001 cycles:   33023103 heartbeat IPC: 0.32761 cumulative IPC: 0.30858 (Simulation time: 0 hr 4 min 4 sec) 
Heartbeat CPU  2 instructions:   53000001 cycles:   33146690 heartbeat IPC: 0.33438 cumulative IPC: 0.33319 (Simulation time: 0 hr 4 min 4 sec) 
Heartbeat CPU  0 instructions:   51000002 cycles:   33384127 heartbeat IPC: 0.29668 cumulative IPC: 0.29668 (Simulation time: 0 hr 4 min 5 sec) 
Heartbeat CPU  1 instructions:   53000003 cycles:   33508001 heartbeat IPC: 0.41326 cumulative IPC: 0.46358 (Simulation time: 0 hr 4 min 5 sec) 
Heartbeat CPU  2 instructions:   54000002 cycles:   36001230 heartbeat IPC: 0.35032 cumulative IPC: 0.34136 (Simulation time: 0 hr 4 min 11 sec) 
Heartbeat CPU  3 instructions:   52000000 cycles:   36269974 heartbeat IPC: 0.30799 cumulative IPC: 0.30828 (Simulation time: 0 hr 4 min 11 sec) 
Heartbeat CPU  0 instructions:   52000000 cycles:   36272608 heartbeat IPC: 0.34620 cumulative IPC: 0.31954 (Simulation time: 0 hr 4 min 11 sec) 
Heartbeat CPU  1 instructions:   54000000 cycles:   37205755 heartbeat IPC: 0.27043 cumulative IPC: 0.36428 (Simulation time: 0 hr 4 min 13 sec) 
Heartbeat CPU  2 instructions:   55000001 cycles:   38781111 heartbeat IPC: 0.35973 cumulative IPC: 0.34718 (Simulation time: 0 hr 4 min 17 sec) 
Heartbeat CPU  0 instructions:   53000002 cycles:   39276149 heartbeat IPC: 0.33294 cumulative IPC: 0.32388 (Simulation time: 0 hr 4 min 18 sec) 
Heartbeat CPU  3 instructions:   53000001 cycles:   39568185 heartbeat IPC: 0.30319 cumulative IPC: 0.30652 (Simulation time: 0 hr 4 min 18 sec) 
Heartbeat CPU  1 instructions:   55000003 cycles:   40706168 heartbeat IPC: 0.28568 cumulative IPC: 0.33855 (Simulation time: 0 hr 4 min 21 sec) 
Heartbeat CPU  2 instructions:   56000000 cycles:   42166309 heartbeat IPC: 0.29540 cumulative IPC: 0.33276 (Simulation time: 0 hr 4 min 24 sec) 
Heartbeat CPU  0 instructions:   54000003 cycles:   42346463 heartbeat IPC: 0.32570 cumulative IPC: 0.32434 (Simulation time: 0 hr 4 min 24 sec) 
Heartbeat CPU  3 instructions:   54000000 cycles:   42819174 heartbeat IPC: 0.30760 cumulative IPC: 0.30679 (Simulation time: 0 hr 4 min 25 sec) 
Heartbeat CPU  1 instructions:   56000000 cycles:   43989563 heartbeat IPC: 0.30456 cumulative IPC: 0.33056 (Simulation time: 0 hr 4 min 28 sec) 
Heartbeat CPU  2 instructions:   57000000 cycles:   45138202 heartbeat IPC: 0.33649 cumulative IPC: 0.33349 (Simulation time: 0 hr 4 min 31 sec) 
Heartbeat CPU  0 instructions:   55000000 cycles:   45464069 heartbeat IPC: 0.32076 cumulative IPC: 0.32361 (Simulation time: 0 hr 4 min 32 sec) 
Heartbeat CPU  3 instructions:   55000003 cycles:   45739159 heartbeat IPC: 0.34247 cumulative IPC: 0.31342 (Simulation time: 0 hr 4 min 33 sec) 
Heartbeat CPU  1 instructions:   57000002 cycles:   46167551 heartbeat IPC: 0.45914 cumulative IPC: 0.34790 (Simulation time: 0 hr 4 min 34 sec) 
Heartbeat CPU  2 instructions:   58000002 cycles:   47148205 heartbeat IPC: 0.49751 cumulative IPC: 0.35273 (Simulation time: 0 hr 4 min 37 sec) 
Heartbeat CPU  0 instructions:   56000000 cycles:   48487690 heartbeat IPC: 0.33073 cumulative IPC: 0.32478 (Simulation time: 0 hr 4 min 40 sec) 
Heartbeat CPU  1 instructions:   58000003 cycles:   48918035 heartbeat IPC: 0.36357 cumulative IPC: 0.35018 (Simulation time: 0 hr 4 min 41 sec) 
Heartbeat CPU  3 instructions:   56000000 cycles:   49558663 heartbeat IPC: 0.26181 cumulative IPC: 0.30333 (Simulation time: 0 hr 4 min 42 sec) 
Heartbeat CPU  2 instructions:   59000003 cycles:   50475590 heartbeat IPC: 0.30054 cumulative IPC: 0.34424 (Simulation time: 0 hr 4 min 44 sec) 
Heartbeat CPU  0 instructions:   57000000 cycles:   51496811 heartbeat IPC: 0.33232 cumulative IPC: 0.32583 (Simulation time: 0 hr 4 min 46 sec) 
Heartbeat CPU  1 instructions:   59000002 cycles:   51874281 heartbeat IPC: 0.33827 cumulative IPC: 0.34857 (Simulation time: 0 hr 4 min 47 sec) 
Heartbeat CPU  3 instructions:   57000003 cycles:   53490194 heartbeat IPC: 0.25435 cumulative IPC: 0.29513 (Simulation time: 0 hr 4 min 50 sec) 
Heartbeat CPU  2 instructions:   60000000 cycles:   53846667 heartbeat IPC: 0.29664 cumulative IPC: 0.33751 (Simulation time: 0 hr 4 min 51 sec) 
Heartbeat CPU  0 instructions:   58000003 cycles:   54584441 heartbeat IPC: 0.32387 cumulative IPC: 0.32559 (Simulation time: 0 hr 4 min 53 sec) 
Heartbeat CPU  1 instructions:   60000000 cycles:   54977894 heartbeat IPC: 0.32220 cumulative IPC: 0.34529 (Simulation time: 0 hr 4 min 54 sec) 
Heartbeat CPU  3 instructions:   58000002 cycles:   56247546 heartbeat IPC: 0.36267 cumulative IPC: 0.30223 (Simulation time: 0 hr 4 min 56 sec) 
Heartbeat CPU  2 instructions:   61000001 cycles:   57363179 heartbeat IPC: 0.28437 cumulative IPC: 0.33068 (Simulation time: 0 hr 4 min 59 sec) 
Heartbeat CPU  0 instructions:   59000000 cycles:   57635228 heartbeat IPC: 0.32778 cumulative IPC: 0.32583 (Simulation time: 0 hr 5 min 0 sec) 
Heartbeat CPU  1 instructions:   61000003 cycles:   58102688 heartbeat IPC: 0.32002 cumulative IPC: 0.34248 (Simulation time: 0 hr 5 min 1 sec) 
Heartbeat CPU  3 instructions:   59000002 cycles:   58212860 heartbeat IPC: 0.50882 cumulative IPC: 0.31663 (Simulation time: 0 hr 5 min 1 sec) 
Heartbeat CPU  1 instructions:   62000002 cycles:   60286021 heartbeat IPC: 0.45801 cumulative IPC: 0.35081 (Simulation time: 0 hr 5 min 6 sec) 
Heartbeat CPU  2 instructions:   62000002 cycles:   60829663 heartbeat IPC: 0.28848 cumulative IPC: 0.32593 (Simulation time: 0 hr 5 min 7 sec) 
Heartbeat CPU  0 instructions:   60000000 cycles:   60871019 heartbeat IPC: 0.30904 cumulative IPC: 0.32407 (Simulation time: 0 hr 5 min 8 sec) 
Heartbeat CPU  3 instructions:   60000000 cycles:   61614694 heartbeat IPC: 0.29396 cumulative IPC: 0.31419 (Simulation time: 0 hr 5 min 9 sec) 
Heartbeat CPU  1 instructions:   63000000 cycles:   62371843 heartbeat IPC: 0.47943 cumulative IPC: 0.35910 (Simulation time: 0 hr 5 min 11 sec) 
Heartbeat CPU  0 instructions:   61000000 cycles:   63282102 heartbeat IPC: 0.41475 cumulative IPC: 0.33064 (Simulation time: 0 hr 5 min 14 sec) 
Heartbeat CPU  2 instructions:   63000000 cycles:   64259489 heartbeat IPC: 0.29156 cumulative IPC: 0.32249 (Simulation time: 0 hr 5 min 16 sec) 
Heartbeat CPU  1 instructions:   64000000 cycles:   64335200 heartbeat IPC: 0.50933 cumulative IPC: 0.36770 (Simulation time: 0 hr 5 min 16 sec) 
Heartbeat CPU  3 instructions:   61000003 cycles:   64932147 heartbeat IPC: 0.30144 cumulative IPC: 0.31298 (Simulation time: 0 hr 5 min 18 sec) 
Heartbeat CPU  0 instructions:   62000000 cycles:   66255291 heartbeat IPC: 0.33634 cumulative IPC: 0.33111 (Simulation time: 0 hr 5 min 21 sec) 
Heartbeat CPU  1 instructions:   65000000 cycles:   66405675 heartbeat IPC: 0.48298 cumulative IPC: 0.37426 (Simulation time: 0 hr 5 min 22 sec) 
Heartbeat CPU  2 instructions:   64000000 cycles:   66858038 heartbeat IPC: 0.38483 cumulative IPC: 0.32689 (Simulation time: 0 hr 5 min 23 sec) 
Heartbeat CPU  3 instructions:   62000001 cycles:   68211149 heartbeat IPC: 0.30497 cumulative IPC: 0.31229 (Simulation time: 0 hr 5 min 27 sec) 
Heartbeat CPU  2 instructions:   65000002 cycles:   68692661 heartbeat IPC: 0.54507 cumulative IPC: 0.33723 (Simulation time: 0 hr 5 min 28 sec) 
Heartbeat CPU  1 instructions:   66000000 cycles:   68811637 heartbeat IPC: 0.41563 cumulative IPC: 0.37682 (Simulation time: 0 hr 5 min 29 sec) 
Heartbeat CPU  0 instructions:   63000001 cycles:   69039640 heartbeat IPC: 0.35915 cumulative IPC: 0.33311 (Simulation time: 0 hr 5 min 29 sec) 
Heartbeat CPU  2 instructions:   66000001 cycles:   70743919 heartbeat IPC: 0.48751 cumulative IPC: 0.34480 (Simulation time: 0 hr 5 min 33 sec) 
Heartbeat CPU  3 instructions:   63000003 cycles:   71534319 heartbeat IPC: 0.30092 cumulative IPC: 0.31138 (Simulation time: 0 hr 5 min 35 sec) 
Heartbeat CPU  1 instructions:   67000002 cycles:   71559026 heartbeat IPC: 0.36398 cumulative IPC: 0.37597 (Simulation time: 0 hr 5 min 35 sec) 
Heartbeat CPU  0 instructions:   64000000 cycles:   71614825 heartbeat IPC: 0.38832 cumulative IPC: 0.33653 (Simulation time: 0 hr 5 min 35 sec) 
Heartbeat CPU  2 instructions:   67000000 cycles:   73887550 heartbeat IPC: 0.31810 cumulative IPC: 0.34289 (Simulation time: 0 hr 5 min 40 sec) 
Heartbeat CPU  0 instructions:   65000003 cycles:   74388388 heartbeat IPC: 0.36055 cumulative IPC: 0.33803 (Simulation time: 0 hr 5 min 41 sec) 
Heartbeat CPU  1 instructions:   68000000 cycles:   74726765 heartbeat IPC: 0.31568 cumulative IPC: 0.37170 (Simulation time: 0 hr 5 min 42 sec) 
Heartbeat CPU  3 instructions:   64000000 cycles:   74917904 heartbeat IPC: 0.29554 cumulative IPC: 0.31019 (Simulation time: 0 hr 5 min 43 sec) 
Heartbeat CPU  2 instructions:   68000000 cycles:   76345157 heartbeat IPC: 0.40690 cumulative IPC: 0.34628 (Simulation time: 0 hr 5 min 47 sec) 
Heartbeat CPU  1 instructions:   69000003 cycles:   76837721 heartbeat IPC: 0.47372 cumulative IPC: 0.37630 (Simulation time: 0 hr 5 min 48 sec) 
Heartbeat CPU  0 instructions:   66000001 cycles:   77045584 heartbeat IPC: 0.37634 cumulative IPC: 0.34019 (Simulation time: 0 hr 5 min 48 sec) 
Heartbeat CPU  3 instructions:   65000002 cycles:   78348458 heartbeat IPC: 0.29150 cumulative IPC: 0.30886 (Simulation time: 0 hr 5 min 51 sec) 
Heartbeat CPU  1 instructions:   70000003 cycles:   78873995 heartbeat IPC: 0.49109 cumulative IPC: 0.38108 (Simulation time: 0 hr 5 min 53 sec) 
Heartbeat CPU  2 instructions:   69000001 cycles:   79709580 heartbeat IPC: 0.29723 cumulative IPC: 0.34296 (Simulation time: 0 hr 5 min 56 sec) 
Heartbeat CPU  0 instructions:   67000002 cycles:   79806872 heartbeat IPC: 0.36215 cumulative IPC: 0.34141 (Simulation time: 0 hr 5 min 56 sec) 
Heartbeat CPU  3 instructions:   66000002 cycles:   80543093 heartbeat IPC: 0.45566 cumulative IPC: 0.31524 (Simulation time: 0 hr 5 min 57 sec) 
Heartbeat CPU  1 instructions:   71000000 cycles:   80909178 heartbeat IPC: 0.49135 cumulative IPC: 0.38549 (Simulation time: 0 hr 5 min 58 sec) 
Heartbeat CPU  1 instructions:   72000000 cycles:   82875377 heartbeat IPC: 0.50860 cumulative IPC: 0.39007 (Simulation time: 0 hr 6 min 3 sec) 
Heartbeat CPU  3 instructions:   67000000 cycles:   83070172 heartbeat IPC: 0.39571 cumulative IPC: 0.31907 (Simulation time: 0 hr 6 min 4 sec) 
Heartbeat CPU  2 instructions:   70000002 cycles:   83361158 heartbeat IPC: 0.27385 cumulative IPC: 0.33823 (Simulation time: 0 hr 6 min 5 sec) 
Heartbeat CPU  0 instructions:   68000000 cycles:   83564221 heartbeat IPC: 0.26614 cumulative IPC: 0.33613 (Simulation time: 0 hr 6 min 5 sec) 
Heartbeat CPU  1 instructions:   73000001 cycles:   84905994 heartbeat IPC: 0.49246 cumulative IPC: 0.39386 (Simulation time: 0 hr 6 min 9 sec) 
Heartbeat CPU  3 instructions:   68000000 cycles:   85470157 heartbeat IPC: 0.41667 cumulative IPC: 0.32329 (Simulation time: 0 hr 6 min 10 sec) 
Heartbeat CPU  0 instructions:   69000001 cycles:   86026511 heartbeat IPC: 0.40613 cumulative IPC: 0.33921 (Simulation time: 0 hr 6 min 12 sec) 
Heartbeat CPU  2 instructions:   71000001 cycles:   86971599 heartbeat IPC: 0.27697 cumulative IPC: 0.33435 (Simulation time: 0 hr 6 min 15 sec) 
Heartbeat CPU  1 instructions:   74000003 cycles:   87174010 heartbeat IPC: 0.44091 cumulative IPC: 0.39573 (Simulation time: 0 hr 6 min 15 sec) 
Heartbeat CPU  0 instructions:   70000003 cycles:   87861988 heartbeat IPC: 0.54482 cumulative IPC: 0.34573 (Simulation time: 0 hr 6 min 17 sec) 
Heartbeat CPU  3 instructions:   69000002 cycles:   87918565 heartbeat IPC: 0.40843 cumulative IPC: 0.32689 (Simulation time: 0 hr 6 min 17 sec) 
Heartbeat CPU  1 instructions:   75000000 cycles:   89964841 heartbeat IPC: 0.35832 cumulative IPC: 0.39399 (Simulation time: 0 hr 6 min 22 sec) 
Heartbeat CPU  2 instructions:   72000000 cycles:   90488491 heartbeat IPC: 0.28434 cumulative IPC: 0.33144 (Simulation time: 0 hr 6 min 23 sec) 
Heartbeat CPU  0 instructions:   71000003 cycles:   90863206 heartbeat IPC: 0.33320 cumulative IPC: 0.34511 (Simulation time: 0 hr 6 min 24 sec) 
Heartbeat CPU  3 instructions:   70000001 cycles:   90924701 heartbeat IPC: 0.33265 cumulative IPC: 0.32718 (Simulation time: 0 hr 6 min 24 sec) 
Heartbeat CPU  1 instructions:   76000000 cycles:   92727728 heartbeat IPC: 0.36194 cumulative IPC: 0.39257 (Simulation time: 0 hr 6 min 27 sec) 
Heartbeat CPU  3 instructions:   71000000 cycles:   94085097 heartbeat IPC: 0.31642 cumulative IPC: 0.32665 (Simulation time: 0 hr 6 min 30 sec) 
Heartbeat CPU  2 instructions:   73000002 cycles:   94086012 heartbeat IPC: 0.27797 cumulative IPC: 0.32844 (Simulation time: 0 hr 6 min 30 sec) 
Heartbeat CPU  0 instructions:   72000000 cycles:   94144695 heartbeat IPC: 0.30474 cumulative IPC: 0.34305 (Simulation time: 0 hr 6 min 30 sec) 
Heartbeat CPU  1 instructions:   77000000 cycles:   96414238 heartbeat IPC: 0.27126 cumulative IPC: 0.38584 (Simulation time: 0 hr 6 min 35 sec) 
Heartbeat CPU  2 instructions:   74000000 cycles:   96858933 heartbeat IPC: 0.36063 cumulative IPC: 0.32977 (Simulation time: 0 hr 6 min 36 sec) 
Heartbeat CPU  3 instructions:   72000000 cycles:   97036780 heartbeat IPC: 0.33879 cumulative IPC: 0.32718 (Simulation time: 0 hr 6 min 37 sec) 
Heartbeat CPU  0 instructions:   73000003 cycles:   97429694 heartbeat IPC: 0.30442 cumulative IPC: 0.34116 (Simulation time: 0 hr 6 min 38 sec) 
Heartbeat CPU  1 instructions:   78000001 cycles:   99604939 heartbeat IPC: 0.31341 cumulative IPC: 0.38252 (Simulation time: 0 hr 6 min 43 sec) 
Heartbeat CPU  3 instructions:   73000001 cycles:   99630495 heartbeat IPC: 0.38555 cumulative IPC: 0.32936 (Simulation time: 0 hr 6 min 43 sec) 
Heartbeat CPU  2 instructions:   75000000 cycles:   99692551 heartbeat IPC: 0.35291 cumulative IPC: 0.33072 (Simulation time: 0 hr 6 min 43 sec) 
Heartbeat CPU  0 instructions:   74000001 cycles:  100705669 heartbeat IPC: 0.30525 cumulative IPC: 0.33950 (Simulation time: 0 hr 6 min 45 sec) 
Heartbeat CPU  1 instructions:   79000000 cycles:  101853989 heartbeat IPC: 0.44463 cumulative IPC: 0.38446 (Simulation time: 0 hr 6 min 48 sec) 
Heartbeat CPU  3 instructions:   74000002 cycles:  102795741 heartbeat IPC: 0.31593 cumulative IPC: 0.32877 (Simulation time: 0 hr 6 min 50 sec) 
Heartbeat CPU  2 instructions:   76000000 cycles:  103037807 heartbeat IPC: 0.29893 cumulative IPC: 0.32926 (Simulation time: 0 hr 6 min 50 sec) 
Heartbeat CPU  0 instructions:   75000003 cycles:  103951530 heartbeat IPC: 0.30809 cumulative IPC: 0.33812 (Simulation time: 0 hr 6 min 52 sec) 
Heartbeat CPU  1 instructions:   80000000 cycles:  105035315 heartbeat IPC: 0.31433 cumulative IPC: 0.38149 (Simulation time: 0 hr 6 min 54 sec) 
Heartbeat CPU  3 instructions:   75000001 cycles:  105849616 heartbeat IPC: 0.32745 cumulative IPC: 0.32872 (Simulation time: 0 hr 6 min 57 sec) 
Heartbeat CPU  2 instructions:   77000003 cycles:  106340481 heartbeat IPC: 0.30279 cumulative IPC: 0.32811 (Simulation time: 0 hr 6 min 58 sec) 
Heartbeat CPU  0 instructions:   76000000 cycles:  106502902 heartbeat IPC: 0.39194 cumulative IPC: 0.33992 (Simulation time: 0 hr 6 min 58 sec) 
Heartbeat CPU  1 instructions:   81000001 cycles:  107253438 heartbeat IPC: 0.45083 cumulative IPC: 0.38348 (Simulation time: 0 hr 7 min 0 sec) 
Heartbeat CPU  3 instructions:   76000000 cycles:  109035874 heartbeat IPC: 0.31385 cumulative IPC: 0.32812 (Simulation time: 0 hr 7 min 4 sec) 
Heartbeat CPU  0 instructions:   77000001 cycles:  109156683 heartbeat IPC: 0.37682 cumulative IPC: 0.34115 (Simulation time: 0 hr 7 min 4 sec) 
Heartbeat CPU  2 instructions:   78000002 cycles:  109453892 heartbeat IPC: 0.32119 cumulative IPC: 0.32784 (Simulation time: 0 hr 7 min 5 sec) 
Heartbeat CPU  1 instructions:   82000000 cycles:  110728210 heartbeat IPC: 0.28779 cumulative IPC: 0.37936 (Simulation time: 0 hr 7 min 8 sec) 
Heartbeat CPU  0 instructions:   78000000 cycles:  111564768 heartbeat IPC: 0.41527 cumulative IPC: 0.34334 (Simulation time: 0 hr 7 min 10 sec) 
Heartbeat CPU  2 instructions:   79000001 cycles:  112215359 heartbeat IPC: 0.36213 cumulative IPC: 0.32899 (Simulation time: 0 hr 7 min 12 sec) 
Heartbeat CPU  3 instructions:   77000003 cycles:  112246761 heartbeat IPC: 0.31144 cumulative IPC: 0.32747 (Simulation time: 0 hr 7 min 12 sec) 
Heartbeat CPU  1 instructions:   83000000 cycles:  114536301 heartbeat IPC: 0.26260 cumulative IPC: 0.37410 (Simulation time: 0 hr 7 min 17 sec) 
Heartbeat CPU  0 instructions:   79000001 cycles:  114600498 heartbeat IPC: 0.32941 cumulative IPC: 0.34284 (Simulation time: 0 hr 7 min 17 sec) 
Heartbeat CPU  2 instructions:   80000000 cycles:  115149652 heartbeat IPC: 0.34080 cumulative IPC: 0.32940 (Simulation time: 0 hr 7 min 18 sec) 
Heartbeat CPU  3 instructions:   78000002 cycles:  115453852 heartbeat IPC: 0.31181 cumulative IPC: 0.32688 (Simulation time: 0 hr 7 min 19 sec) 
Heartbeat CPU  1 instructions:   84000000 cycles:  117212804 heartbeat IPC: 0.37362 cumulative IPC: 0.37409 (Simulation time: 0 hr 7 min 23 sec) 
Heartbeat CPU  0 instructions:   80000000 cycles:  117712308 heartbeat IPC: 0.32136 cumulative IPC: 0.34208 (Simulation time: 0 hr 7 min 25 sec) 
Heartbeat CPU  2 instructions:   81000000 cycles:  117867788 heartbeat IPC: 0.36790 cumulative IPC: 0.33059 (Simulation time: 0 hr 7 min 25 sec) 
Heartbeat CPU  3 instructions:   79000000 cycles:  118074981 heartbeat IPC: 0.38151 cumulative IPC: 0.32851 (Simulation time: 0 hr 7 min 26 sec) 
Heartbeat CPU  1 instructions:   85000003 cycles:  119444293 heartbeat IPC: 0.44813 cumulative IPC: 0.37593 (Simulation time: 0 hr 7 min 29 sec) 
Heartbeat CPU  3 instructions:   80000000 cycles:  120233398 heartbeat IPC: 0.46330 cumulative IPC: 0.33173 (Simulation time: 0 hr 7 min 31 sec) 
Heartbeat CPU  0 instructions:   81000002 cycles:  120564236 heartbeat IPC: 0.35064 cumulative IPC: 0.34235 (Simulation time: 0 hr 7 min 32 sec) 
Heartbeat CPU  3 instructions:   81000000 cycles:  121441634 heartbeat IPC: 0.82765 cumulative IPC: 0.33828 (Simulation time: 0 hr 7 min 35 sec) 
Heartbeat CPU  2 instructions:   82000001 cycles:  121445111 heartbeat IPC: 0.27954 cumulative IPC: 0.32859 (Simulation time: 0 hr 7 min 35 sec) 
Heartbeat CPU  1 instructions:   86000002 cycles:  121476777 heartbeat IPC: 0.49201 cumulative IPC: 0.37851 (Simulation time: 0 hr 7 min 35 sec) 
Heartbeat CPU  0 instructions:   82000002 cycles:  123364354 heartbeat IPC: 0.35713 cumulative IPC: 0.34279 (Simulation time: 0 hr 7 min 40 sec) 
Heartbeat CPU  1 instructions:   87000002 cycles:  124293695 heartbeat IPC: 0.35500 cumulative IPC: 0.37781 (Simulation time: 0 hr 7 min 42 sec) 
Heartbeat CPU  3 instructions:   82000003 cycles:  124707593 heartbeat IPC: 0.30619 cumulative IPC: 0.33718 (Simulation time: 0 hr 7 min 43 sec) 
Heartbeat CPU  2 instructions:   83000001 cycles:  125033657 heartbeat IPC: 0.27866 cumulative IPC: 0.32671 (Simulation time: 0 hr 7 min 44 sec) 
Heartbeat CPU  0 instructions:   83000002 cycles:  125551916 heartbeat IPC: 0.45713 cumulative IPC: 0.34541 (Simulation time: 0 hr 7 min 45 sec) 
Heartbeat CPU  1 instructions:   88000000 cycles:  126720343 heartbeat IPC: 0.41209 cumulative IPC: 0.37867 (Simulation time: 0 hr 7 min 48 sec) 
Heartbeat CPU  2 instructions:   84000000 cycles:  127870584 heartbeat IPC: 0.35249 cumulative IPC: 0.32746 (Simulation time: 0 hr 7 min 51 sec) 
Heartbeat CPU  3 instructions:   83000000 cycles:  127997194 heartbeat IPC: 0.30399 cumulative IPC: 0.33606 (Simulation time: 0 hr 7 min 51 sec) 
Heartbeat CPU  1 instructions:   89000001 cycles:  128776919 heartbeat IPC: 0.48625 cumulative IPC: 0.38091 (Simulation time: 0 hr 7 min 53 sec) 
DEADLOCK! CPU 0 instr_id: 83976857 translated: 2 fetched: 2 scheduled: 2 executed: 1 is_memory: 1 event: 128646402 current: 129646402

Load Queue Entry
[LQ] entry: 0 instr_id: 0 address: 0 translated: 0 fetched: 0
[LQ] entry: 1 instr_id: 0 address: 0 translated: 0 fetched: 0
[LQ] entry: 2 instr_id: 0 address: 0 translated: 0 fetched: 0
[LQ] entry: 3 instr_id: 0 address: 0 translated: 0 fetched: 0
[LQ] entry: 4 instr_id: 83976857 address: 8dc626108040 translated: 2 fetched: 0
[LQ] entry: 5 instr_id: 0 address: 0 translated: 0 fetched: 0
[LQ] entry: 6 instr_id: 0 address: 0 translated: 0 fetched: 0
[LQ] entry: 7 instr_id: 0 address: 0 translated: 0 fetched: 0
[LQ] entry: 8 instr_id: 0 address: 0 translated: 0 fetched: 0
[LQ] entry: 9 instr_id: 0 address: 0 translated: 0 fetched: 0
[LQ] entry: 10 instr_id: 0 address: 0 translated: 0 fetched: 0
[LQ] entry: 11 instr_id: 0 address: 0 translated: 0 fetched: 0
[LQ] entry: 12 instr_id: 0 address: 0 translated: 0 fetched: 0
[LQ] entry: 13 instr_id: 0 address: 0 translated: 0 fetched: 0
[LQ] entry: 14 instr_id: 0 address: 0 translated: 0 fetched: 0
[LQ] entry: 15 instr_id: 0 address: 0 translated: 0 fetched: 0
[LQ] entry: 16 instr_id: 0 address: 0 translated: 0 fetched: 0
[LQ] entry: 17 instr_id: 0 address: 0 translated: 0 fetched: 0
[LQ] entry: 18 instr_id: 0 address: 0 translated: 0 fetched: 0
[LQ] entry: 19 instr_id: 0 address: 0 translated: 0 fetched: 0
[LQ] entry: 20 instr_id: 0 address: 0 translated: 0 fetched: 0
[LQ] entry: 21 instr_id: 0 address: 0 translated: 0 fetched: 0
[LQ] entry: 22 instr_id: 0 address: 0 translated: 0 fetched: 0
[LQ] entry: 23 instr_id: 0 address: 0 translated: 0 fetched: 0
[LQ] entry: 24 instr_id: 0 address: 0 translated: 0 fetched: 0
[LQ] entry: 25 instr_id: 0 address: 0 translated: 0 fetched: 0
[LQ] entry: 26 instr_id: 0 address: 0 translated: 0 fetched: 0
[LQ] entry: 27 instr_id: 0 address: 0 translated: 0 fetched: 0
[LQ] entry: 28 instr_id: 0 address: 0 translated: 0 fetched: 0
[LQ] entry: 29 instr_id: 0 address: 0 translated: 0 fetched: 0
[LQ] entry: 30 instr_id: 0 address: 0 translated: 0 fetched: 0
[LQ] entry: 31 instr_id: 0 address: 0 translated: 0 fetched: 0
[LQ] entry: 32 instr_id: 0 address: 0 translated: 0 fetched: 0
[LQ] entry: 33 instr_id: 0 address: 0 translated: 0 fetched: 0
[LQ] entry: 34 instr_id: 0 address: 0 translated: 0 fetched: 0
[LQ] entry: 35 instr_id: 0 address: 0 translated: 0 fetched: 0
[LQ] entry: 36 instr_id: 0 address: 0 translated: 0 fetched: 0
[LQ] entry: 37 instr_id: 0 address: 0 translated: 0 fetched: 0
[LQ] entry: 38 instr_id: 0 address: 0 translated: 0 fetched: 0
[LQ] entry: 39 instr_id: 0 address: 0 translated: 0 fetched: 0
[LQ] entry: 40 instr_id: 0 address: 0 translated: 0 fetched: 0
[LQ] entry: 41 instr_id: 0 address: 0 translated: 0 fetched: 0
[LQ] entry: 42 instr_id: 0 address: 0 translated: 0 fetched: 0
[LQ] entry: 43 instr_id: 0 address: 0 translated: 0 fetched: 0
[LQ] entry: 44 instr_id: 0 address: 0 translated: 0 fetched: 0
[LQ] entry: 45 instr_id: 0 address: 0 translated: 0 fetched: 0
[LQ] entry: 46 instr_id: 0 address: 0 translated: 0 fetched: 0
[LQ] entry: 47 instr_id: 0 address: 0 translated: 0 fetched: 0
[LQ] entry: 48 instr_id: 0 address: 0 translated: 0 fetched: 0
[LQ] entry: 49 instr_id: 0 address: 0 translated: 0 fetched: 0
[LQ] entry: 50 instr_id: 0 address: 0 translated: 0 fetched: 0
[LQ] entry: 51 instr_id: 0 address: 0 translated: 0 fetched: 0
[LQ] entry: 52 instr_id: 0 address: 0 translated: 0 fetched: 0
[LQ] entry: 53 instr_id: 0 address: 0 translated: 0 fetched: 0
[LQ] entry: 54 instr_id: 0 address: 0 translated: 0 fetched: 0
[LQ] entry: 55 instr_id: 0 address: 0 translated: 0 fetched: 0
[LQ] entry: 56 instr_id: 0 address: 0 translated: 0 fetched: 0
[LQ] entry: 57 instr_id: 0 address: 0 translated: 0 fetched: 0
[LQ] entry: 58 instr_id: 0 address: 0 translated: 0 fetched: 0
[LQ] entry: 59 instr_id: 0 address: 0 translated: 0 fetched: 0
[LQ] entry: 60 instr_id: 0 address: 0 translated: 0 fetched: 0
[LQ] entry: 61 instr_id: 0 address: 0 translated: 0 fetched: 0
[LQ] entry: 62 instr_id: 0 address: 0 translated: 0 fetched: 0
[LQ] entry: 63 instr_id: 0 address: 0 translated: 0 fetched: 0
[LQ] entry: 64 instr_id: 0 address: 0 translated: 0 fetched: 0
[LQ] entry: 65 instr_id: 0 address: 0 translated: 0 fetched: 0
[LQ] entry: 66 instr_id: 0 address: 0 translated: 0 fetched: 0
[LQ] entry: 67 instr_id: 0 address: 0 translated: 0 fetched: 0
[LQ] entry: 68 instr_id: 0 address: 0 translated: 0 fetched: 0
[LQ] entry: 69 instr_id: 0 address: 0 translated: 0 fetched: 0
[LQ] entry: 70 instr_id: 0 address: 0 translated: 0 fetched: 0
[LQ] entry: 71 instr_id: 0 address: 0 translated: 0 fetched: 0

Store Queue Entry
[SQ] entry: 0 instr_id: 83976897 address: 8dc626103db4 translated: 2 fetched: 2
[SQ] entry: 1 instr_id: 83976902 address: 8dc626103db6 translated: 2 fetched: 2
[SQ] entry: 2 instr_id: 83976907 address: 8dc626103db8 translated: 2 fetched: 2
[SQ] entry: 3 instr_id: 83976912 address: 8dc626103dba translated: 2 fetched: 2
[SQ] entry: 4 instr_id: 83976917 address: 8dc626103dbc translated: 2 fetched: 2
[SQ] entry: 5 instr_id: 0 address: 0 translated: 0 fetched: 2
[SQ] entry: 6 instr_id: 0 address: 0 translated: 0 fetched: 2
[SQ] entry: 7 instr_id: 0 address: 0 translated: 0 fetched: 2
[SQ] entry: 8 instr_id: 0 address: 0 translated: 0 fetched: 2
[SQ] entry: 9 instr_id: 0 address: 0 translated: 0 fetched: 2
[SQ] entry: 10 instr_id: 0 address: 0 translated: 0 fetched: 2
[SQ] entry: 11 instr_id: 0 address: 0 translated: 0 fetched: 2
[SQ] entry: 12 instr_id: 0 address: 0 translated: 0 fetched: 2
[SQ] entry: 13 instr_id: 0 address: 0 translated: 0 fetched: 2
[SQ] entry: 14 instr_id: 0 address: 0 translated: 0 fetched: 2
[SQ] entry: 15 instr_id: 0 address: 0 translated: 0 fetched: 2
[SQ] entry: 16 instr_id: 0 address: 0 translated: 0 fetched: 2
[SQ] entry: 17 instr_id: 0 address: 0 translated: 0 fetched: 2
[SQ] entry: 18 instr_id: 0 address: 0 translated: 0 fetched: 2
[SQ] entry: 19 instr_id: 0 address: 0 translated: 0 fetched: 2
[SQ] entry: 20 instr_id: 0 address: 0 translated: 0 fetched: 2
[SQ] entry: 21 instr_id: 0 address: 0 translated: 0 fetched: 2
[SQ] entry: 22 instr_id: 0 address: 0 translated: 0 fetched: 2
[SQ] entry: 23 instr_id: 0 address: 0 translated: 0 fetched: 2
[SQ] entry: 24 instr_id: 0 address: 0 translated: 0 fetched: 2
[SQ] entry: 25 instr_id: 0 address: 0 translated: 0 fetched: 2
[SQ] entry: 26 instr_id: 0 address: 0 translated: 0 fetched: 2
[SQ] entry: 27 instr_id: 0 address: 0 translated: 0 fetched: 2
[SQ] entry: 28 instr_id: 0 address: 0 translated: 0 fetched: 2
[SQ] entry: 29 instr_id: 0 address: 0 translated: 0 fetched: 2
[SQ] entry: 30 instr_id: 0 address: 0 translated: 0 fetched: 2
[SQ] entry: 31 instr_id: 0 address: 0 translated: 0 fetched: 2
[SQ] entry: 32 instr_id: 0 address: 0 translated: 0 fetched: 2
[SQ] entry: 33 instr_id: 0 address: 0 translated: 0 fetched: 2
[SQ] entry: 34 instr_id: 0 address: 0 translated: 0 fetched: 2
[SQ] entry: 35 instr_id: 0 address: 0 translated: 0 fetched: 2
[SQ] entry: 36 instr_id: 0 address: 0 translated: 0 fetched: 2
[SQ] entry: 37 instr_id: 0 address: 0 translated: 0 fetched: 2
[SQ] entry: 38 instr_id: 0 address: 0 translated: 0 fetched: 2
[SQ] entry: 39 instr_id: 0 address: 0 translated: 0 fetched: 2
[SQ] entry: 40 instr_id: 0 address: 0 translated: 0 fetched: 2
[SQ] entry: 41 instr_id: 0 address: 0 translated: 0 fetched: 2
[SQ] entry: 42 instr_id: 0 address: 0 translated: 0 fetched: 2
[SQ] entry: 43 instr_id: 0 address: 0 translated: 0 fetched: 2
[SQ] entry: 44 instr_id: 0 address: 0 translated: 0 fetched: 2
[SQ] entry: 45 instr_id: 0 address: 0 translated: 0 fetched: 2
[SQ] entry: 46 instr_id: 0 address: 0 translated: 0 fetched: 2
[SQ] entry: 47 instr_id: 0 address: 0 translated: 0 fetched: 2
[SQ] entry: 48 instr_id: 0 address: 0 translated: 0 fetched: 2
[SQ] entry: 49 instr_id: 0 address: 0 translated: 0 fetched: 2
[SQ] entry: 50 instr_id: 0 address: 0 translated: 0 fetched: 2
[SQ] entry: 51 instr_id: 0 address: 0 translated: 0 fetched: 2
[SQ] entry: 52 instr_id: 0 address: 0 translated: 0 fetched: 2
[SQ] entry: 53 instr_id: 0 address: 0 translated: 0 fetched: 2
[SQ] entry: 54 instr_id: 0 address: 0 translated: 0 fetched: 2
[SQ] entry: 55 instr_id: 83976862 address: 8dc626103db8 translated: 2 fetched: 2

L1D_MSHR Entry
[L1D_MSHR] entry: 0 instr_id: 83976857 rob_index: 153 address: 23718984201 full_addr: 8dc626108040 type: 0 fill_level: 1 lq_index: 4 sq_index: 0
[L1D_MSHR] entry: 1 instr_id: 0 rob_index: -1 address: 0 full_addr: 0 type: 0 fill_level: -1 lq_index: 0 sq_index: 0
[L1D_MSHR] entry: 2 instr_id: 0 rob_index: -1 address: 0 full_addr: 0 type: 0 fill_level: -1 lq_index: 0 sq_index: 0
[L1D_MSHR] entry: 3 instr_id: 0 rob_index: -1 address: 0 full_addr: 0 type: 0 fill_level: -1 lq_index: 0 sq_index: 0
[L1D_MSHR] entry: 4 instr_id: 0 rob_index: -1 address: 0 full_addr: 0 type: 0 fill_level: -1 lq_index: 0 sq_index: 0
[L1D_MSHR] entry: 5 instr_id: 0 rob_index: -1 address: 0 full_addr: 0 type: 0 fill_level: -1 lq_index: 0 sq_index: 0
[L1D_MSHR] entry: 6 instr_id: 0 rob_index: -1 address: 0 full_addr: 0 type: 0 fill_level: -1 lq_index: 0 sq_index: 0
[L1D_MSHR] entry: 7 instr_id: 0 rob_index: -1 address: 0 full_addr: 0 type: 0 fill_level: -1 lq_index: 0 sq_index: 0
[L1D_MSHR] entry: 8 instr_id: 0 rob_index: -1 address: 0 full_addr: 0 type: 0 fill_level: -1 lq_index: 0 sq_index: 0
[L1D_MSHR] entry: 9 instr_id: 0 rob_index: -1 address: 0 full_addr: 0 type: 0 fill_level: -1 lq_index: 0 sq_index: 0
[L1D_MSHR] entry: 10 instr_id: 0 rob_index: -1 address: 0 full_addr: 0 type: 0 fill_level: -1 lq_index: 0 sq_index: 0
[L1D_MSHR] entry: 11 instr_id: 0 rob_index: -1 address: 0 full_addr: 0 type: 0 fill_level: -1 lq_index: 0 sq_index: 0
[L1D_MSHR] entry: 12 instr_id: 0 rob_index: -1 address: 0 full_addr: 0 type: 0 fill_level: -1 lq_index: 0 sq_index: 0
[L1D_MSHR] entry: 13 instr_id: 0 rob_index: -1 address: 0 full_addr: 0 type: 0 fill_level: -1 lq_index: 0 sq_index: 0
[L1D_MSHR] entry: 14 instr_id: 0 rob_index: -1 address: 0 full_addr: 0 type: 0 fill_level: -1 lq_index: 0 sq_index: 0
[L1D_MSHR] entry: 15 instr_id: 0 rob_index: -1 address: 0 full_addr: 0 type: 0 fill_level: -1 lq_index: 0 sq_index: 0
bimodal-no-coop_pythia-no-lru-4core: src/main.cc:323: void print_deadlock(uint32_t): Assertion `0' failed.
