*************************************************
   ChampSim Multicore Out-of-Order Simulator
   Last compiled: Apr 16 2025 04:47:48
*************************************************
parsing config file: /pref/Pythia/config/coop_pythia.ini

trace_0 /pref/Pythia/NUTCH/traces/nutch_phase1_core0.trace.xz
trace_1 /pref/Pythia/NUTCH/traces/nutch_phase1_core1.trace.xz
trace_2 /pref/Pythia/NUTCH/traces/nutch_phase1_core2.trace.xz
trace_3 /pref/Pythia/NUTCH/traces/nutch_phase1_core3.trace.xz
Initialize SHIP state
warmup_instructions 50000000
simulation_instructions 150000000
champsim_seed 7154
measure_ipc 0
measure_ipc_epoch 1000
measure_dram_bw 1
measure_dram_bw_epoch 256
measure_cache_acc 1
measure_cache_acc_epoch 1024
l1d_perfect 0
l2c_perfect 0
llc_perfect 0
l1d_semi_perfect 0
l2c_semi_perfect 0
llc_semi_perfect 0
semi_perfect_cache_page_buffer_size 64

num_cpus 4
cpu_freq 4000
dram_io_freq 2400
page_size 4096
block_size 64
max_read_per_cycle 8
max_fill_per_cycle 1
dram_channels 2
log2_dram_channels 1
dram_ranks 1
dram_banks 8
dram_rows 65536
dram_columns 128
dram_row_size 8
dram_size 8192
dram_pages 2097152
======= Prefetcher Knob Settings =======
coop_enable_multicore: 1
coop_enable_bw_throttling: 1
coop_rl_enable: 1
coop_rl_ipc_threshold: 
coop_rl_alpha_high_ipc: 0.1
coop_rl_alpha_low_ipc: 0.02
coop_rl_bw_threshold: 2
========================================
fetch_width 6
decode_width 6
exec_width 4
lq_width 2
sq_width 2
retire_width 4
scheduler_size 128
branch_mispredict_penalty 20
rob_size 256
lq_size 72
sq_size 56
num_instr_destinations_sparc 4
num_instr_destinations 2
num_instr_sources 4

itlb_set 16
itlb_way 8
itlb_rq_size 16
itlb_wq_size 16
itlb_pq_size 0
itlb_mshr_size 8
itlb_latency 1

dtlb_set 16
dtlb_way 4
dtlb_rq_size 16
dtlb_wq_size 16
dtlb_pq_size 0
dtlb_mshr_size 8
dtlb_latency 1

stlb_set 128
stlb_way 12
stlb_rq_size 32
stlb_wq_size 32
stlb_pq_size 0
stlb_mshr_size 16
stlb_latency 8

l1i_size 32
l1i_set 64
l1i_way 8
l1i_rq_size 64
l1i_wq_size 64
l1i_pq_size 8
l1i_mshr_size 8
l1i_latency 1

l1d_size 32
l1d_set 64
l1d_way 8
l1d_rq_size 64
l1d_wq_size 64
l1d_pq_size 16
l1d_mshr_size 16
l1d_latency 4

l2c_size 256
l2c_set 512
l2c_way 8
l2c_rq_size 64
l2c_wq_size 32
l2c_pq_size 64
l2c_mshr_size 64
l2c_latency 10

llc_size 8192
llc_set 8192
llc_way 16
llc_rq_size 256
llc_wq_size 256
llc_pq_size 128
llc_mshr_size 256
llc_latency 20

dram_channel_width 8
dram_wq_size 64
dram_rq_size 64
tRP 15
tRCD 15
tCAS 12.5
dram_dbus_turn_around_time 30
dram_write_high_wm 56
dram_write_low_wm 48
min_dram_writes_per_switch 16
dram_mtps 2400
dram_dbus_return_time 13

[CoopPythia Config]
 - Adaptive Alpha: Enabled
 - Multicore Mode: Enabled
 - BW Throttling: Enabled
 - IPC Threshold: 5
 - BW Threshold: 2

Heartbeat CPU  3 instructions:    1000001 cycles:     564561 heartbeat IPC: 1.77129 cumulative IPC: 1.77129 (Simulation time: 0 hr 0 min 4 sec) 
Heartbeat CPU  2 instructions:    1000003 cycles:     611069 heartbeat IPC: 1.63648 cumulative IPC: 1.63648 (Simulation time: 0 hr 0 min 5 sec) 
Heartbeat CPU  0 instructions:    1000002 cycles:     629478 heartbeat IPC: 1.58862 cumulative IPC: 1.58862 (Simulation time: 0 hr 0 min 5 sec) 
Heartbeat CPU  1 instructions:    1000001 cycles:     653414 heartbeat IPC: 1.53042 cumulative IPC: 1.53042 (Simulation time: 0 hr 0 min 5 sec) 
Heartbeat CPU  3 instructions:    2000001 cycles:    1073772 heartbeat IPC: 1.96382 cumulative IPC: 1.86259 (Simulation time: 0 hr 0 min 10 sec) 
Heartbeat CPU  0 instructions:    2000000 cycles:    1096420 heartbeat IPC: 2.14159 cumulative IPC: 1.82412 (Simulation time: 0 hr 0 min 10 sec) 
Heartbeat CPU  1 instructions:    2000000 cycles:    1164936 heartbeat IPC: 1.95495 cumulative IPC: 1.71683 (Simulation time: 0 hr 0 min 10 sec) 
Heartbeat CPU  2 instructions:    2000002 cycles:    1336969 heartbeat IPC: 1.37760 cumulative IPC: 1.49592 (Simulation time: 0 hr 0 min 12 sec) 
Heartbeat CPU  0 instructions:    3000001 cycles:    1575235 heartbeat IPC: 2.08849 cumulative IPC: 1.90448 (Simulation time: 0 hr 0 min 13 sec) 
Heartbeat CPU  3 instructions:    3000002 cycles:    1807547 heartbeat IPC: 1.36282 cumulative IPC: 1.65971 (Simulation time: 0 hr 0 min 15 sec) 
Heartbeat CPU  1 instructions:    3000003 cycles:    1856318 heartbeat IPC: 1.44638 cumulative IPC: 1.61610 (Simulation time: 0 hr 0 min 15 sec) 
Heartbeat CPU  2 instructions:    3000003 cycles:    2168545 heartbeat IPC: 1.20254 cumulative IPC: 1.38342 (Simulation time: 0 hr 0 min 18 sec) 
Heartbeat CPU  0 instructions:    4000000 cycles:    2212205 heartbeat IPC: 1.56993 cumulative IPC: 1.80815 (Simulation time: 0 hr 0 min 18 sec) 
Heartbeat CPU  3 instructions:    4000000 cycles:    2288956 heartbeat IPC: 2.07723 cumulative IPC: 1.74752 (Simulation time: 0 hr 0 min 19 sec) 
Heartbeat CPU  1 instructions:    4000000 cycles:    2371056 heartbeat IPC: 1.94273 cumulative IPC: 1.68701 (Simulation time: 0 hr 0 min 20 sec) 
Heartbeat CPU  2 instructions:    4000000 cycles:    2604473 heartbeat IPC: 2.29395 cumulative IPC: 1.53582 (Simulation time: 0 hr 0 min 22 sec) 
Heartbeat CPU  0 instructions:    5000000 cycles:    2689014 heartbeat IPC: 2.09728 cumulative IPC: 1.85942 (Simulation time: 0 hr 0 min 23 sec) 
Heartbeat CPU  3 instructions:    5000001 cycles:    2709261 heartbeat IPC: 2.37923 cumulative IPC: 1.84552 (Simulation time: 0 hr 0 min 23 sec) 
Heartbeat CPU  1 instructions:    5000000 cycles:    2811781 heartbeat IPC: 2.26899 cumulative IPC: 1.77823 (Simulation time: 0 hr 0 min 24 sec) 
Heartbeat CPU  3 instructions:    6000000 cycles:    3126712 heartbeat IPC: 2.39549 cumulative IPC: 1.91895 (Simulation time: 0 hr 0 min 28 sec) 
Heartbeat CPU  0 instructions:    6000003 cycles:    3126740 heartbeat IPC: 2.28454 cumulative IPC: 1.91893 (Simulation time: 0 hr 0 min 28 sec) 
Heartbeat CPU  2 instructions:    5000000 cycles:    3163471 heartbeat IPC: 1.78892 cumulative IPC: 1.58054 (Simulation time: 0 hr 0 min 28 sec) 
Heartbeat CPU  1 instructions:    6000000 cycles:    3238434 heartbeat IPC: 2.34383 cumulative IPC: 1.85275 (Simulation time: 0 hr 0 min 29 sec) 
Heartbeat CPU  3 instructions:    7000002 cycles:    3541198 heartbeat IPC: 2.41263 cumulative IPC: 1.97673 (Simulation time: 0 hr 0 min 32 sec) 
Heartbeat CPU  0 instructions:    7000000 cycles:    3552505 heartbeat IPC: 2.34871 cumulative IPC: 1.97044 (Simulation time: 0 hr 0 min 32 sec) 
Heartbeat CPU  1 instructions:    7000002 cycles:    3667110 heartbeat IPC: 2.33277 cumulative IPC: 1.90886 (Simulation time: 0 hr 0 min 33 sec) 
Heartbeat CPU  2 instructions:    6000003 cycles:    3709728 heartbeat IPC: 1.83065 cumulative IPC: 1.61737 (Simulation time: 0 hr 0 min 34 sec) 
Heartbeat CPU  0 instructions:    8000000 cycles:    3978215 heartbeat IPC: 2.34902 cumulative IPC: 2.01095 (Simulation time: 0 hr 0 min 37 sec) 
Heartbeat CPU  3 instructions:    8000000 cycles:    4014492 heartbeat IPC: 2.11285 cumulative IPC: 1.99278 (Simulation time: 0 hr 0 min 37 sec) 
Heartbeat CPU  1 instructions:    8000000 cycles:    4095545 heartbeat IPC: 2.33407 cumulative IPC: 1.95334 (Simulation time: 0 hr 0 min 38 sec) 
Heartbeat CPU  2 instructions:    7000000 cycles:    4223125 heartbeat IPC: 1.94780 cumulative IPC: 1.65754 (Simulation time: 0 hr 0 min 39 sec) 
Heartbeat CPU  0 instructions:    9000001 cycles:    4399230 heartbeat IPC: 2.37521 cumulative IPC: 2.04581 (Simulation time: 0 hr 0 min 41 sec) 
Heartbeat CPU  1 instructions:    9000003 cycles:    4523803 heartbeat IPC: 2.33505 cumulative IPC: 1.98948 (Simulation time: 0 hr 0 min 42 sec) 
Heartbeat CPU  3 instructions:    9000003 cycles:    4652040 heartbeat IPC: 1.56851 cumulative IPC: 1.93464 (Simulation time: 0 hr 0 min 43 sec) 
Heartbeat CPU  0 instructions:   10000001 cycles:    4820552 heartbeat IPC: 2.37348 cumulative IPC: 2.07445 (Simulation time: 0 hr 0 min 45 sec) 
Heartbeat CPU  2 instructions:    8000000 cycles:    4924523 heartbeat IPC: 1.42572 cumulative IPC: 1.62452 (Simulation time: 0 hr 0 min 46 sec) 
Heartbeat CPU  1 instructions:   10000001 cycles:    5085982 heartbeat IPC: 1.77879 cumulative IPC: 1.96619 (Simulation time: 0 hr 0 min 47 sec) 
Heartbeat CPU  3 instructions:   10000003 cycles:    5106891 heartbeat IPC: 2.19852 cumulative IPC: 1.95814 (Simulation time: 0 hr 0 min 47 sec) 
Heartbeat CPU  0 instructions:   11000001 cycles:    5290692 heartbeat IPC: 2.12703 cumulative IPC: 2.07912 (Simulation time: 0 hr 0 min 49 sec) 
Heartbeat CPU  2 instructions:    9000003 cycles:    5462983 heartbeat IPC: 1.85715 cumulative IPC: 1.64745 (Simulation time: 0 hr 0 min 51 sec) 
Heartbeat CPU  1 instructions:   11000001 cycles:    5600933 heartbeat IPC: 1.94193 cumulative IPC: 1.96396 (Simulation time: 0 hr 0 min 52 sec) 
Heartbeat CPU  3 instructions:   11000001 cycles:    5649130 heartbeat IPC: 1.84420 cumulative IPC: 1.94720 (Simulation time: 0 hr 0 min 53 sec) 
Heartbeat CPU  0 instructions:   12000000 cycles:    5767394 heartbeat IPC: 2.09774 cumulative IPC: 2.08066 (Simulation time: 0 hr 0 min 54 sec) 
Heartbeat CPU  2 instructions:   10000000 cycles:    5978389 heartbeat IPC: 1.94021 cumulative IPC: 1.67269 (Simulation time: 0 hr 0 min 56 sec) 
Heartbeat CPU  1 instructions:   12000000 cycles:    6109602 heartbeat IPC: 1.96591 cumulative IPC: 1.96412 (Simulation time: 0 hr 0 min 57 sec) 
Heartbeat CPU  3 instructions:   12000000 cycles:    6214139 heartbeat IPC: 1.76988 cumulative IPC: 1.93108 (Simulation time: 0 hr 0 min 58 sec) 
Heartbeat CPU  0 instructions:   13000001 cycles:    6387293 heartbeat IPC: 1.61317 cumulative IPC: 2.03529 (Simulation time: 0 hr 0 min 59 sec) 
Heartbeat CPU  2 instructions:   11000000 cycles:    6597157 heartbeat IPC: 1.61611 cumulative IPC: 1.66738 (Simulation time: 0 hr 1 min 1 sec) 
Heartbeat CPU  3 instructions:   13000000 cycles:    6710165 heartbeat IPC: 2.01602 cumulative IPC: 1.93736 (Simulation time: 0 hr 1 min 2 sec) 
Heartbeat CPU  1 instructions:   13000000 cycles:    6809307 heartbeat IPC: 1.42917 cumulative IPC: 1.90915 (Simulation time: 0 hr 1 min 3 sec) 
Heartbeat CPU  0 instructions:   14000002 cycles:    6910955 heartbeat IPC: 1.90963 cumulative IPC: 2.02577 (Simulation time: 0 hr 1 min 4 sec) 
Heartbeat CPU  3 instructions:   14000000 cycles:    7142616 heartbeat IPC: 2.31240 cumulative IPC: 1.96007 (Simulation time: 0 hr 1 min 7 sec) 
Heartbeat CPU  2 instructions:   12000000 cycles:    7143102 heartbeat IPC: 1.83169 cumulative IPC: 1.67994 (Simulation time: 0 hr 1 min 7 sec) 
Heartbeat CPU  1 instructions:   14000003 cycles:    7242497 heartbeat IPC: 2.30846 cumulative IPC: 1.93304 (Simulation time: 0 hr 1 min 8 sec) 
Heartbeat CPU  0 instructions:   15000002 cycles:    7328567 heartbeat IPC: 2.39457 cumulative IPC: 2.04679 (Simulation time: 0 hr 1 min 9 sec) 
Heartbeat CPU  2 instructions:   13000003 cycles:    7662703 heartbeat IPC: 1.92456 cumulative IPC: 1.69653 (Simulation time: 0 hr 1 min 12 sec) 
Heartbeat CPU  3 instructions:   15000000 cycles:    7668522 heartbeat IPC: 1.90148 cumulative IPC: 1.95605 (Simulation time: 0 hr 1 min 12 sec) 
Heartbeat CPU  0 instructions:   16000000 cycles:    7808550 heartbeat IPC: 2.08340 cumulative IPC: 2.04904 (Simulation time: 0 hr 1 min 13 sec) 
Heartbeat CPU  1 instructions:   15000001 cycles:    7921357 heartbeat IPC: 1.47305 cumulative IPC: 1.89362 (Simulation time: 0 hr 1 min 14 sec) 
Heartbeat CPU  3 instructions:   16000000 cycles:    8206098 heartbeat IPC: 1.86020 cumulative IPC: 1.94977 (Simulation time: 0 hr 1 min 17 sec) 
Heartbeat CPU  0 instructions:   17000001 cycles:    8324821 heartbeat IPC: 1.93697 cumulative IPC: 2.04209 (Simulation time: 0 hr 1 min 18 sec) 
Heartbeat CPU  1 instructions:   16000000 cycles:    8388391 heartbeat IPC: 2.14117 cumulative IPC: 1.90740 (Simulation time: 0 hr 1 min 18 sec) 
Heartbeat CPU  2 instructions:   14000001 cycles:    8395899 heartbeat IPC: 1.36389 cumulative IPC: 1.66748 (Simulation time: 0 hr 1 min 18 sec) 
Heartbeat CPU  3 instructions:   17000003 cycles:    8764045 heartbeat IPC: 1.79229 cumulative IPC: 1.93974 (Simulation time: 0 hr 1 min 22 sec) 
Heartbeat CPU  1 instructions:   17000003 cycles:    8790276 heartbeat IPC: 2.48828 cumulative IPC: 1.93396 (Simulation time: 0 hr 1 min 22 sec) 
Heartbeat CPU  0 instructions:   18000000 cycles:    8867727 heartbeat IPC: 1.84194 cumulative IPC: 2.02983 (Simulation time: 0 hr 1 min 23 sec) 
Heartbeat CPU  2 instructions:   15000000 cycles:    8922453 heartbeat IPC: 1.89914 cumulative IPC: 1.68115 (Simulation time: 0 hr 1 min 23 sec) 
Heartbeat CPU  1 instructions:   18000002 cycles:    9193353 heartbeat IPC: 2.48091 cumulative IPC: 1.95794 (Simulation time: 0 hr 1 min 26 sec) 
Heartbeat CPU  3 instructions:   18000002 cycles:    9209703 heartbeat IPC: 2.24387 cumulative IPC: 1.95446 (Simulation time: 0 hr 1 min 26 sec) 
Heartbeat CPU  0 instructions:   19000003 cycles:    9291203 heartbeat IPC: 2.36142 cumulative IPC: 2.04495 (Simulation time: 0 hr 1 min 27 sec) 
Heartbeat CPU  2 instructions:   16000000 cycles:    9458677 heartbeat IPC: 1.86489 cumulative IPC: 1.69157 (Simulation time: 0 hr 1 min 29 sec) 
Heartbeat CPU  1 instructions:   19000002 cycles:    9609448 heartbeat IPC: 2.40330 cumulative IPC: 1.97722 (Simulation time: 0 hr 1 min 31 sec) 
Heartbeat CPU  3 instructions:   19000003 cycles:    9658560 heartbeat IPC: 2.22788 cumulative IPC: 1.96717 (Simulation time: 0 hr 1 min 31 sec) 
Heartbeat CPU  0 instructions:   20000000 cycles:    9708403 heartbeat IPC: 2.39692 cumulative IPC: 2.06007 (Simulation time: 0 hr 1 min 32 sec) 
Heartbeat CPU  2 instructions:   17000003 cycles:   10019872 heartbeat IPC: 1.78192 cumulative IPC: 1.69663 (Simulation time: 0 hr 1 min 35 sec) 
Heartbeat CPU  1 instructions:   20000000 cycles:   10021834 heartbeat IPC: 2.42491 cumulative IPC: 1.99564 (Simulation time: 0 hr 1 min 35 sec) 
Heartbeat CPU  0 instructions:   21000001 cycles:   10124796 heartbeat IPC: 2.40158 cumulative IPC: 2.07412 (Simulation time: 0 hr 1 min 36 sec) 
Heartbeat CPU  3 instructions:   20000000 cycles:   10209232 heartbeat IPC: 1.81596 cumulative IPC: 1.95901 (Simulation time: 0 hr 1 min 37 sec) 
Heartbeat CPU  0 instructions:   22000002 cycles:   10542397 heartbeat IPC: 2.39463 cumulative IPC: 2.08681 (Simulation time: 0 hr 1 min 40 sec) 
Heartbeat CPU  2 instructions:   18000001 cycles:   10592484 heartbeat IPC: 1.74638 cumulative IPC: 1.69932 (Simulation time: 0 hr 1 min 40 sec) 
Heartbeat CPU  1 instructions:   21000003 cycles:   10638181 heartbeat IPC: 1.62247 cumulative IPC: 1.97402 (Simulation time: 0 hr 1 min 41 sec) 
Heartbeat CPU  3 instructions:   21000002 cycles:   10902144 heartbeat IPC: 1.44319 cumulative IPC: 1.92623 (Simulation time: 0 hr 1 min 43 sec) 
Heartbeat CPU  0 instructions:   23000002 cycles:   11017480 heartbeat IPC: 2.10490 cumulative IPC: 2.08759 (Simulation time: 0 hr 1 min 44 sec) 
Heartbeat CPU  1 instructions:   22000000 cycles:   11158470 heartbeat IPC: 1.92200 cumulative IPC: 1.97160 (Simulation time: 0 hr 1 min 45 sec) 
Heartbeat CPU  2 instructions:   19000003 cycles:   11191857 heartbeat IPC: 1.66841 cumulative IPC: 1.69766 (Simulation time: 0 hr 1 min 45 sec) 
Heartbeat CPU  0 instructions:   24000000 cycles:   11422808 heartbeat IPC: 2.46713 cumulative IPC: 2.10106 (Simulation time: 0 hr 1 min 48 sec) 
Heartbeat CPU  3 instructions:   22000000 cycles:   11472490 heartbeat IPC: 1.75332 cumulative IPC: 1.91763 (Simulation time: 0 hr 1 min 49 sec) 
Heartbeat CPU  1 instructions:   23000000 cycles:   11676944 heartbeat IPC: 1.92874 cumulative IPC: 1.96969 (Simulation time: 0 hr 1 min 51 sec) 
Heartbeat CPU  2 instructions:   20000000 cycles:   11727051 heartbeat IPC: 1.86848 cumulative IPC: 1.70546 (Simulation time: 0 hr 1 min 51 sec) 
Heartbeat CPU  0 instructions:   25000000 cycles:   11839995 heartbeat IPC: 2.39701 cumulative IPC: 2.11149 (Simulation time: 0 hr 1 min 52 sec) 
Heartbeat CPU  1 instructions:   24000000 cycles:   12168756 heartbeat IPC: 2.03330 cumulative IPC: 1.97226 (Simulation time: 0 hr 1 min 55 sec) 
Heartbeat CPU  2 instructions:   21000002 cycles:   12242714 heartbeat IPC: 1.93925 cumulative IPC: 1.71531 (Simulation time: 0 hr 1 min 56 sec) 
Heartbeat CPU  3 instructions:   23000001 cycles:   12252522 heartbeat IPC: 1.28200 cumulative IPC: 1.87716 (Simulation time: 0 hr 1 min 56 sec) 
Heartbeat CPU  0 instructions:   26000000 cycles:   12477337 heartbeat IPC: 1.56902 cumulative IPC: 2.08378 (Simulation time: 0 hr 1 min 58 sec) 
Heartbeat CPU  1 instructions:   25000003 cycles:   12675970 heartbeat IPC: 1.97156 cumulative IPC: 1.97224 (Simulation time: 0 hr 2 min 0 sec) 
Heartbeat CPU  2 instructions:   22000002 cycles:   12730988 heartbeat IPC: 2.04803 cumulative IPC: 1.72807 (Simulation time: 0 hr 2 min 0 sec) 
Heartbeat CPU  3 instructions:   24000000 cycles:   12985846 heartbeat IPC: 1.36365 cumulative IPC: 1.84817 (Simulation time: 0 hr 2 min 2 sec) 
Heartbeat CPU  0 instructions:   27000001 cycles:   13185492 heartbeat IPC: 1.41212 cumulative IPC: 2.04771 (Simulation time: 0 hr 2 min 3 sec) 
Heartbeat CPU  2 instructions:   23000003 cycles:   13245612 heartbeat IPC: 1.94317 cumulative IPC: 1.73642 (Simulation time: 0 hr 2 min 4 sec) 
Heartbeat CPU  1 instructions:   26000000 cycles:   13594491 heartbeat IPC: 1.08870 cumulative IPC: 1.91254 (Simulation time: 0 hr 2 min 7 sec) 
Heartbeat CPU  0 instructions:   28000000 cycles:   13628832 heartbeat IPC: 2.25560 cumulative IPC: 2.05447 (Simulation time: 0 hr 2 min 7 sec) 
Heartbeat CPU  3 instructions:   25000003 cycles:   13714639 heartbeat IPC: 1.37214 cumulative IPC: 1.82287 (Simulation time: 0 hr 2 min 8 sec) 
Heartbeat CPU  2 instructions:   24000000 cycles:   13731885 heartbeat IPC: 2.05645 cumulative IPC: 1.74776 (Simulation time: 0 hr 2 min 8 sec) 
Heartbeat CPU  0 instructions:   29000002 cycles:   14113094 heartbeat IPC: 2.06500 cumulative IPC: 2.05483 (Simulation time: 0 hr 2 min 11 sec) 
Heartbeat CPU  2 instructions:   25000002 cycles:   14195965 heartbeat IPC: 2.15481 cumulative IPC: 1.76106 (Simulation time: 0 hr 2 min 12 sec) 
Heartbeat CPU  1 instructions:   27000000 cycles:   14325080 heartbeat IPC: 1.36876 cumulative IPC: 1.88481 (Simulation time: 0 hr 2 min 13 sec) 
Heartbeat CPU  3 instructions:   26000001 cycles:   14395204 heartbeat IPC: 1.46936 cumulative IPC: 1.80616 (Simulation time: 0 hr 2 min 14 sec) 
Heartbeat CPU  0 instructions:   30000002 cycles:   14550677 heartbeat IPC: 2.28528 cumulative IPC: 2.06176 (Simulation time: 0 hr 2 min 15 sec) 
Heartbeat CPU  3 instructions:   27000000 cycles:   14874650 heartbeat IPC: 2.08574 cumulative IPC: 1.81517 (Simulation time: 0 hr 2 min 18 sec) 
Heartbeat CPU  1 instructions:   28000000 cycles:   14894976 heartbeat IPC: 1.75471 cumulative IPC: 1.87983 (Simulation time: 0 hr 2 min 19 sec) 
Heartbeat CPU  2 instructions:   26000001 cycles:   14899347 heartbeat IPC: 1.42170 cumulative IPC: 1.74504 (Simulation time: 0 hr 2 min 19 sec) 
Heartbeat CPU  0 instructions:   31000001 cycles:   14980161 heartbeat IPC: 2.32837 cumulative IPC: 2.06940 (Simulation time: 0 hr 2 min 20 sec) 
Heartbeat CPU  1 instructions:   29000000 cycles:   15347239 heartbeat IPC: 2.21110 cumulative IPC: 1.88959 (Simulation time: 0 hr 2 min 23 sec) 
Heartbeat CPU  0 instructions:   32000000 cycles:   15407568 heartbeat IPC: 2.33969 cumulative IPC: 2.07690 (Simulation time: 0 hr 2 min 23 sec) 
Heartbeat CPU  2 instructions:   27000000 cycles:   15574751 heartbeat IPC: 1.48059 cumulative IPC: 1.73358 (Simulation time: 0 hr 2 min 25 sec) 
Heartbeat CPU  3 instructions:   28000000 cycles:   15584650 heartbeat IPC: 1.40845 cumulative IPC: 1.79664 (Simulation time: 0 hr 2 min 25 sec) 
Heartbeat CPU  1 instructions:   30000002 cycles:   15783861 heartbeat IPC: 2.29032 cumulative IPC: 1.90068 (Simulation time: 0 hr 2 min 27 sec) 
Heartbeat CPU  0 instructions:   33000000 cycles:   15851938 heartbeat IPC: 2.25038 cumulative IPC: 2.08176 (Simulation time: 0 hr 2 min 27 sec) 
Heartbeat CPU  2 instructions:   28000000 cycles:   16210659 heartbeat IPC: 1.57255 cumulative IPC: 1.72726 (Simulation time: 0 hr 2 min 31 sec) 
Heartbeat CPU  1 instructions:   31000000 cycles:   16210844 heartbeat IPC: 2.34201 cumulative IPC: 1.91230 (Simulation time: 0 hr 2 min 31 sec) 
Heartbeat CPU  3 instructions:   29000001 cycles:   16261957 heartbeat IPC: 1.47644 cumulative IPC: 1.78330 (Simulation time: 0 hr 2 min 31 sec) 
Heartbeat CPU  0 instructions:   34000000 cycles:   16278571 heartbeat IPC: 2.34394 cumulative IPC: 2.08864 (Simulation time: 0 hr 2 min 31 sec) 
Heartbeat CPU  1 instructions:   32000000 cycles:   16635590 heartbeat IPC: 2.35435 cumulative IPC: 1.92359 (Simulation time: 0 hr 2 min 34 sec) 
Heartbeat CPU  2 instructions:   29000000 cycles:   16820457 heartbeat IPC: 1.63989 cumulative IPC: 1.72409 (Simulation time: 0 hr 2 min 36 sec) 
Heartbeat CPU  0 instructions:   35000001 cycles:   16838935 heartbeat IPC: 1.78456 cumulative IPC: 2.07852 (Simulation time: 0 hr 2 min 36 sec) 
Heartbeat CPU  3 instructions:   30000003 cycles:   16868881 heartbeat IPC: 1.64766 cumulative IPC: 1.77842 (Simulation time: 0 hr 2 min 37 sec) 
Heartbeat CPU  1 instructions:   33000002 cycles:   17130011 heartbeat IPC: 2.02257 cumulative IPC: 1.92644 (Simulation time: 0 hr 2 min 39 sec) 
Heartbeat CPU  3 instructions:   31000001 cycles:   17366549 heartbeat IPC: 2.00937 cumulative IPC: 1.78504 (Simulation time: 0 hr 2 min 41 sec) 
Heartbeat CPU  2 instructions:   30000000 cycles:   17383891 heartbeat IPC: 1.77483 cumulative IPC: 1.72574 (Simulation time: 0 hr 2 min 41 sec) 
Heartbeat CPU  0 instructions:   36000000 cycles:   17499697 heartbeat IPC: 1.51340 cumulative IPC: 2.05718 (Simulation time: 0 hr 2 min 42 sec) 
Heartbeat CPU  3 instructions:   32000000 cycles:   17818287 heartbeat IPC: 2.21367 cumulative IPC: 1.79591 (Simulation time: 0 hr 2 min 44 sec) 
Heartbeat CPU  1 instructions:   34000002 cycles:   17849392 heartbeat IPC: 1.39008 cumulative IPC: 1.90483 (Simulation time: 0 hr 2 min 45 sec) 
Heartbeat CPU  0 instructions:   37000003 cycles:   18007369 heartbeat IPC: 1.96978 cumulative IPC: 2.05471 (Simulation time: 0 hr 2 min 46 sec) 
Heartbeat CPU  2 instructions:   31000003 cycles:   18021099 heartbeat IPC: 1.56935 cumulative IPC: 1.72021 (Simulation time: 0 hr 2 min 46 sec) 
Heartbeat CPU  3 instructions:   33000002 cycles:   18269010 heartbeat IPC: 2.21866 cumulative IPC: 1.80634 (Simulation time: 0 hr 2 min 48 sec) 
Heartbeat CPU  0 instructions:   38000000 cycles:   18435209 heartbeat IPC: 2.33732 cumulative IPC: 2.06127 (Simulation time: 0 hr 2 min 50 sec) 
Heartbeat CPU  1 instructions:   35000002 cycles:   18564248 heartbeat IPC: 1.39888 cumulative IPC: 1.88534 (Simulation time: 0 hr 2 min 51 sec) 
Heartbeat CPU  2 instructions:   32000000 cycles:   18600787 heartbeat IPC: 1.72506 cumulative IPC: 1.72036 (Simulation time: 0 hr 2 min 52 sec) 
Heartbeat CPU  3 instructions:   34000000 cycles:   18701949 heartbeat IPC: 2.30979 cumulative IPC: 1.81799 (Simulation time: 0 hr 2 min 52 sec) 
Heartbeat CPU  0 instructions:   39000001 cycles:   18870292 heartbeat IPC: 2.29841 cumulative IPC: 2.06674 (Simulation time: 0 hr 2 min 54 sec) 
Heartbeat CPU  3 instructions:   35000002 cycles:   19132364 heartbeat IPC: 2.32334 cumulative IPC: 1.82936 (Simulation time: 0 hr 2 min 56 sec) 
Heartbeat CPU  1 instructions:   36000000 cycles:   19193733 heartbeat IPC: 1.58860 cumulative IPC: 1.87561 (Simulation time: 0 hr 2 min 57 sec) 
Heartbeat CPU  0 instructions:   40000000 cycles:   19296088 heartbeat IPC: 2.34854 cumulative IPC: 2.07296 (Simulation time: 0 hr 2 min 58 sec) 
Heartbeat CPU  2 instructions:   33000000 cycles:   19374257 heartbeat IPC: 1.29287 cumulative IPC: 1.70329 (Simulation time: 0 hr 2 min 59 sec) 
Heartbeat CPU  3 instructions:   36000000 cycles:   19561170 heartbeat IPC: 2.33205 cumulative IPC: 1.84038 (Simulation time: 0 hr 3 min 1 sec) 
Heartbeat CPU  1 instructions:   37000001 cycles:   19611001 heartbeat IPC: 2.39654 cumulative IPC: 1.88670 (Simulation time: 0 hr 3 min 1 sec) 
Heartbeat CPU  0 instructions:   41000003 cycles:   19718874 heartbeat IPC: 2.36527 cumulative IPC: 2.07923 (Simulation time: 0 hr 3 min 2 sec) 
Heartbeat CPU  3 instructions:   37000000 cycles:   20109299 heartbeat IPC: 1.82439 cumulative IPC: 1.83994 (Simulation time: 0 hr 3 min 6 sec) 
Heartbeat CPU  2 instructions:   34000001 cycles:   20122661 heartbeat IPC: 1.33618 cumulative IPC: 1.68964 (Simulation time: 0 hr 3 min 6 sec) 
Heartbeat CPU  1 instructions:   38000001 cycles:   20124599 heartbeat IPC: 1.94705 cumulative IPC: 1.88824 (Simulation time: 0 hr 3 min 6 sec) 
Heartbeat CPU  0 instructions:   42000002 cycles:   20141457 heartbeat IPC: 2.36640 cumulative IPC: 2.08525 (Simulation time: 0 hr 3 min 6 sec) 
Heartbeat CPU  1 instructions:   39000003 cycles:   20561788 heartbeat IPC: 2.28734 cumulative IPC: 1.89672 (Simulation time: 0 hr 3 min 10 sec) 
Heartbeat CPU  2 instructions:   35000001 cycles:   20589597 heartbeat IPC: 2.14162 cumulative IPC: 1.69989 (Simulation time: 0 hr 3 min 11 sec) 
Heartbeat CPU  0 instructions:   43000003 cycles:   20618731 heartbeat IPC: 2.09523 cumulative IPC: 2.08548 (Simulation time: 0 hr 3 min 11 sec) 
Heartbeat CPU  3 instructions:   38000000 cycles:   20682971 heartbeat IPC: 1.74316 cumulative IPC: 1.83726 (Simulation time: 0 hr 3 min 12 sec) 
Heartbeat CPU  1 instructions:   40000000 cycles:   20987622 heartbeat IPC: 2.34833 cumulative IPC: 1.90589 (Simulation time: 0 hr 3 min 14 sec) 
Heartbeat CPU  2 instructions:   36000000 cycles:   21120712 heartbeat IPC: 1.88283 cumulative IPC: 1.70449 (Simulation time: 0 hr 3 min 15 sec) 
Heartbeat CPU  0 instructions:   44000000 cycles:   21180528 heartbeat IPC: 1.78000 cumulative IPC: 2.07738 (Simulation time: 0 hr 3 min 16 sec) 
Heartbeat CPU  3 instructions:   39000002 cycles:   21367338 heartbeat IPC: 1.46121 cumulative IPC: 1.82522 (Simulation time: 0 hr 3 min 18 sec) 
Heartbeat CPU  1 instructions:   41000000 cycles:   21416852 heartbeat IPC: 2.32975 cumulative IPC: 1.91438 (Simulation time: 0 hr 3 min 18 sec) 
Heartbeat CPU  2 instructions:   37000000 cycles:   21573615 heartbeat IPC: 2.20798 cumulative IPC: 1.71506 (Simulation time: 0 hr 3 min 20 sec) 
Heartbeat CPU  3 instructions:   40000000 cycles:   21834947 heartbeat IPC: 2.13853 cumulative IPC: 1.83193 (Simulation time: 0 hr 3 min 22 sec) 
Heartbeat CPU  0 instructions:   45000001 cycles:   21879182 heartbeat IPC: 1.43133 cumulative IPC: 2.05675 (Simulation time: 0 hr 3 min 22 sec) 
Heartbeat CPU  1 instructions:   42000002 cycles:   21961354 heartbeat IPC: 1.83654 cumulative IPC: 1.91245 (Simulation time: 0 hr 3 min 23 sec) 
Heartbeat CPU  2 instructions:   38000001 cycles:   22001770 heartbeat IPC: 2.33561 cumulative IPC: 1.72713 (Simulation time: 0 hr 3 min 24 sec) 
Heartbeat CPU  3 instructions:   41000002 cycles:   22280404 heartbeat IPC: 2.24489 cumulative IPC: 1.84018 (Simulation time: 0 hr 3 min 27 sec) 
Heartbeat CPU  0 instructions:   46000000 cycles:   22346025 heartbeat IPC: 2.14205 cumulative IPC: 2.05853 (Simulation time: 0 hr 3 min 27 sec) 
Heartbeat CPU  1 instructions:   43000003 cycles:   22404708 heartbeat IPC: 2.25554 cumulative IPC: 1.91924 (Simulation time: 0 hr 3 min 28 sec) 
Heartbeat CPU  2 instructions:   39000003 cycles:   22429188 heartbeat IPC: 2.33963 cumulative IPC: 1.73881 (Simulation time: 0 hr 3 min 28 sec) 
Heartbeat CPU  3 instructions:   42000000 cycles:   22710544 heartbeat IPC: 2.32482 cumulative IPC: 1.84936 (Simulation time: 0 hr 3 min 31 sec) 
Heartbeat CPU  0 instructions:   47000002 cycles:   22790690 heartbeat IPC: 2.24889 cumulative IPC: 2.06225 (Simulation time: 0 hr 3 min 32 sec) 
Heartbeat CPU  2 instructions:   40000000 cycles:   22858985 heartbeat IPC: 2.32667 cumulative IPC: 1.74986 (Simulation time: 0 hr 3 min 33 sec) 
Heartbeat CPU  1 instructions:   44000000 cycles:   22896309 heartbeat IPC: 2.03416 cumulative IPC: 1.92171 (Simulation time: 0 hr 3 min 34 sec) 
Heartbeat CPU  3 instructions:   43000000 cycles:   23072454 heartbeat IPC: 2.76312 cumulative IPC: 1.86369 (Simulation time: 0 hr 3 min 36 sec) 
Heartbeat CPU  0 instructions:   48000000 cycles:   23214599 heartbeat IPC: 2.35899 cumulative IPC: 2.06766 (Simulation time: 0 hr 3 min 37 sec) 
Heartbeat CPU  2 instructions:   41000000 cycles:   23287711 heartbeat IPC: 2.33249 cumulative IPC: 1.76059 (Simulation time: 0 hr 3 min 38 sec) 
Heartbeat CPU  1 instructions:   45000002 cycles:   23391272 heartbeat IPC: 2.02036 cumulative IPC: 1.92379 (Simulation time: 0 hr 3 min 39 sec) 
Heartbeat CPU  3 instructions:   44000000 cycles:   23498252 heartbeat IPC: 2.34853 cumulative IPC: 1.87248 (Simulation time: 0 hr 3 min 40 sec) 
Heartbeat CPU  0 instructions:   49000000 cycles:   23633734 heartbeat IPC: 2.38587 cumulative IPC: 2.07331 (Simulation time: 0 hr 3 min 42 sec) 
Heartbeat CPU  2 instructions:   42000000 cycles:   23831109 heartbeat IPC: 1.84027 cumulative IPC: 1.76240 (Simulation time: 0 hr 3 min 44 sec) 
Heartbeat CPU  3 instructions:   45000003 cycles:   23915145 heartbeat IPC: 2.39870 cumulative IPC: 1.88165 (Simulation time: 0 hr 3 min 45 sec) 
Heartbeat CPU  1 instructions:   46000002 cycles:   23978391 heartbeat IPC: 1.70323 cumulative IPC: 1.91839 (Simulation time: 0 hr 3 min 45 sec) 
Heartbeat CPU  0 instructions:   50000003 cycles:   24055531 heartbeat IPC: 2.37082 cumulative IPC: 2.07852 (Simulation time: 0 hr 3 min 46 sec) 
Heartbeat CPU  3 instructions:   46000001 cycles:   24330043 heartbeat IPC: 2.41023 cumulative IPC: 1.89067 (Simulation time: 0 hr 3 min 48 sec) 
Heartbeat CPU  2 instructions:   43000000 cycles:   24450745 heartbeat IPC: 1.61385 cumulative IPC: 1.75864 (Simulation time: 0 hr 3 min 50 sec) 
Heartbeat CPU  0 instructions:   51000002 cycles:   24476919 heartbeat IPC: 2.37311 cumulative IPC: 0.04085 (Simulation time: 0 hr 3 min 50 sec) 
Heartbeat CPU  1 instructions:   47000000 cycles:   24803538 heartbeat IPC: 1.21190 cumulative IPC: 1.89489 (Simulation time: 0 hr 3 min 53 sec) 
Heartbeat CPU  3 instructions:   47000001 cycles:   24876070 heartbeat IPC: 1.83141 cumulative IPC: 1.88937 (Simulation time: 0 hr 3 min 54 sec) 
Heartbeat CPU  2 instructions:   44000000 cycles:   24929276 heartbeat IPC: 2.08973 cumulative IPC: 1.76499 (Simulation time: 0 hr 3 min 54 sec) 
Heartbeat CPU  0 instructions:   52000000 cycles:   24959277 heartbeat IPC: 2.07314 cumulative IPC: 0.08013 (Simulation time: 0 hr 3 min 55 sec) 
Heartbeat CPU  0 instructions:   53000001 cycles:   25411632 heartbeat IPC: 2.21066 cumulative IPC: 0.11806 (Simulation time: 0 hr 3 min 58 sec) 
Heartbeat CPU  1 instructions:   48000000 cycles:   25448799 heartbeat IPC: 1.54976 cumulative IPC: 1.88614 (Simulation time: 0 hr 3 min 58 sec) 
Heartbeat CPU  3 instructions:   48000000 cycles:   25546521 heartbeat IPC: 1.49153 cumulative IPC: 1.87893 (Simulation time: 0 hr 3 min 59 sec) 
Heartbeat CPU  2 instructions:   45000002 cycles:   25623781 heartbeat IPC: 1.43988 cumulative IPC: 1.75618 (Simulation time: 0 hr 4 min 0 sec) 
Heartbeat CPU  0 instructions:   54000002 cycles:   25816375 heartbeat IPC: 2.47071 cumulative IPC: 0.15494 (Simulation time: 0 hr 4 min 2 sec) 
Heartbeat CPU  1 instructions:   49000000 cycles:   25958935 heartbeat IPC: 1.96026 cumulative IPC: 1.88760 (Simulation time: 0 hr 4 min 3 sec) 
Heartbeat CPU  3 instructions:   49000000 cycles:   26004523 heartbeat IPC: 2.18340 cumulative IPC: 1.88429 (Simulation time: 0 hr 4 min 4 sec) 
Heartbeat CPU  2 instructions:   46000001 cycles:   26183809 heartbeat IPC: 1.78562 cumulative IPC: 1.75681 (Simulation time: 0 hr 4 min 6 sec) 
Heartbeat CPU  0 instructions:   55000003 cycles:   26221126 heartbeat IPC: 2.47066 cumulative IPC: 0.19069 (Simulation time: 0 hr 4 min 6 sec) 
Heartbeat CPU  3 instructions:   50000001 cycles:   26438572 heartbeat IPC: 2.30389 cumulative IPC: 1.89118 (Simulation time: 0 hr 4 min 8 sec) 
Heartbeat CPU  1 instructions:   50000000 cycles:   26513503 heartbeat IPC: 1.80321 cumulative IPC: 1.88583 (Simulation time: 0 hr 4 min 9 sec) 
Heartbeat CPU  0 instructions:   56000000 cycles:   26645855 heartbeat IPC: 2.35444 cumulative IPC: 0.22518 (Simulation time: 0 hr 4 min 11 sec) 
Heartbeat CPU  2 instructions:   47000000 cycles:   26658662 heartbeat IPC: 2.10591 cumulative IPC: 1.76303 (Simulation time: 0 hr 4 min 11 sec) 
Heartbeat CPU  3 instructions:   51000001 cycles:   26862482 heartbeat IPC: 2.35899 cumulative IPC: 0.03723 (Simulation time: 0 hr 4 min 13 sec) 
Heartbeat CPU  0 instructions:   57000000 cycles:   27045739 heartbeat IPC: 2.50073 cumulative IPC: 0.25882 (Simulation time: 0 hr 4 min 15 sec) 
Heartbeat CPU  1 instructions:   51000001 cycles:   27083839 heartbeat IPC: 1.75335 cumulative IPC: 0.03692 (Simulation time: 0 hr 4 min 15 sec) 
Heartbeat CPU  2 instructions:   48000000 cycles:   27122734 heartbeat IPC: 2.15484 cumulative IPC: 1.76973 (Simulation time: 0 hr 4 min 16 sec) 
Heartbeat CPU  3 instructions:   52000000 cycles:   27287340 heartbeat IPC: 2.35373 cumulative IPC: 0.07329 (Simulation time: 0 hr 4 min 18 sec) 
Heartbeat CPU  0 instructions:   58000003 cycles:   27452234 heartbeat IPC: 2.46006 cumulative IPC: 0.29142 (Simulation time: 0 hr 4 min 19 sec) 
Heartbeat CPU  2 instructions:   49000000 cycles:   27555959 heartbeat IPC: 2.30827 cumulative IPC: 1.77820 (Simulation time: 0 hr 4 min 21 sec) 
Heartbeat CPU  1 instructions:   52000000 cycles:   27573848 heartbeat IPC: 2.04078 cumulative IPC: 0.07253 (Simulation time: 0 hr 4 min 21 sec) 
Heartbeat CPU  3 instructions:   53000001 cycles:   27712464 heartbeat IPC: 2.35226 cumulative IPC: 0.10825 (Simulation time: 0 hr 4 min 22 sec) 
Heartbeat CPU  0 instructions:   59000001 cycles:   27857067 heartbeat IPC: 2.47015 cumulative IPC: 0.32308 (Simulation time: 0 hr 4 min 24 sec) 
Heartbeat CPU  2 instructions:   50000001 cycles:   27984094 heartbeat IPC: 2.33571 cumulative IPC: 1.78673 (Simulation time: 0 hr 4 min 26 sec) 

Warmup complete CPU  0 instructions:   59273764 cycles:   27984093 (Simulation time: 0 hr 4 min 26 sec) 
Warmup complete CPU  1 instructions:   52851604 cycles:   27984093 (Simulation time: 0 hr 4 min 26 sec) 
Warmup complete CPU  2 instructions:   50000001 cycles:   27984094 (Simulation time: 0 hr 4 min 26 sec) 
Warmup complete CPU  3 instructions:   53645923 cycles:   27984093 (Simulation time: 0 hr 4 min 26 sec) 

Heartbeat CPU  1 instructions:   53000000 cycles:   28881033 heartbeat IPC: 0.76500 cumulative IPC: 0.16545 (Simulation time: 0 hr 4 min 28 sec) 
Heartbeat CPU  3 instructions:   54000002 cycles:   29050118 heartbeat IPC: 0.74758 cumulative IPC: 0.33215 (Simulation time: 0 hr 4 min 28 sec) 
Heartbeat CPU  0 instructions:   60000000 cycles:   30771810 heartbeat IPC: 0.34308 cumulative IPC: 0.26051 (Simulation time: 0 hr 4 min 32 sec) 
Heartbeat CPU  2 instructions:   51000002 cycles:   30896251 heartbeat IPC: 0.34339 cumulative IPC: 0.34339 (Simulation time: 0 hr 4 min 32 sec) 
Heartbeat CPU  3 instructions:   55000001 cycles:   32036907 heartbeat IPC: 0.33481 cumulative IPC: 0.33411 (Simulation time: 0 hr 4 min 35 sec) 
Heartbeat CPU  1 instructions:   54000001 cycles:   33024624 heartbeat IPC: 0.24134 cumulative IPC: 0.22783 (Simulation time: 0 hr 4 min 37 sec) 
Heartbeat CPU  0 instructions:   61000000 cycles:   33346290 heartbeat IPC: 0.38843 cumulative IPC: 0.32193 (Simulation time: 0 hr 4 min 38 sec) 
Heartbeat CPU  2 instructions:   52000000 cycles:   33850075 heartbeat IPC: 0.33854 cumulative IPC: 0.34095 (Simulation time: 0 hr 4 min 39 sec) 
Heartbeat CPU  3 instructions:   56000000 cycles:   36393229 heartbeat IPC: 0.22955 cumulative IPC: 0.27994 (Simulation time: 0 hr 4 min 44 sec) 
Heartbeat CPU  0 instructions:   62000000 cycles:   36453295 heartbeat IPC: 0.32185 cumulative IPC: 0.32190 (Simulation time: 0 hr 4 min 45 sec) 
Heartbeat CPU  2 instructions:   53000001 cycles:   36664470 heartbeat IPC: 0.35532 cumulative IPC: 0.34561 (Simulation time: 0 hr 4 min 45 sec) 
Heartbeat CPU  1 instructions:   55000003 cycles:   36793097 heartbeat IPC: 0.26536 cumulative IPC: 0.24389 (Simulation time: 0 hr 4 min 45 sec) 
Heartbeat CPU  0 instructions:   63000002 cycles:   39293042 heartbeat IPC: 0.35214 cumulative IPC: 0.32949 (Simulation time: 0 hr 4 min 50 sec) 
Heartbeat CPU  2 instructions:   54000002 cycles:   39817026 heartbeat IPC: 0.31720 cumulative IPC: 0.33804 (Simulation time: 0 hr 4 min 52 sec) 
Heartbeat CPU  1 instructions:   56000000 cycles:   40448310 heartbeat IPC: 0.27358 cumulative IPC: 0.25259 (Simulation time: 0 hr 4 min 53 sec) 
Heartbeat CPU  3 instructions:   57000003 cycles:   40784690 heartbeat IPC: 0.22772 cumulative IPC: 0.26203 (Simulation time: 0 hr 4 min 54 sec) 
Heartbeat CPU  0 instructions:   64000000 cycles:   41941777 heartbeat IPC: 0.37754 cumulative IPC: 0.33861 (Simulation time: 0 hr 4 min 57 sec) 
Heartbeat CPU  1 instructions:   57000002 cycles:   42598216 heartbeat IPC: 0.46514 cumulative IPC: 0.28386 (Simulation time: 0 hr 4 min 59 sec) 
Heartbeat CPU  2 instructions:   55000001 cycles:   42712746 heartbeat IPC: 0.34534 cumulative IPC: 0.33947 (Simulation time: 0 hr 5 min 0 sec) 
Heartbeat CPU  3 instructions:   58000002 cycles:   43469773 heartbeat IPC: 0.37243 cumulative IPC: 0.28117 (Simulation time: 0 hr 5 min 2 sec) 
Heartbeat CPU  0 instructions:   65000003 cycles:   44715738 heartbeat IPC: 0.36050 cumulative IPC: 0.34224 (Simulation time: 0 hr 5 min 5 sec) 
Heartbeat CPU  3 instructions:   59000000 cycles:   45443790 heartbeat IPC: 0.50658 cumulative IPC: 0.30665 (Simulation time: 0 hr 5 min 7 sec) 
Heartbeat CPU  1 instructions:   58000001 cycles:   45540564 heartbeat IPC: 0.33986 cumulative IPC: 0.29325 (Simulation time: 0 hr 5 min 7 sec) 
Heartbeat CPU  2 instructions:   56000000 cycles:   46154138 heartbeat IPC: 0.29058 cumulative IPC: 0.33021 (Simulation time: 0 hr 5 min 9 sec) 
Heartbeat CPU  0 instructions:   66000001 cycles:   47427834 heartbeat IPC: 0.36872 cumulative IPC: 0.34593 (Simulation time: 0 hr 5 min 12 sec) 
Heartbeat CPU  3 instructions:   60000000 cycles:   48671875 heartbeat IPC: 0.30978 cumulative IPC: 0.30714 (Simulation time: 0 hr 5 min 15 sec) 
Heartbeat CPU  1 instructions:   59000002 cycles:   48738178 heartbeat IPC: 0.31273 cumulative IPC: 0.29625 (Simulation time: 0 hr 5 min 15 sec) 
Heartbeat CPU  2 instructions:   57000002 cycles:   48998872 heartbeat IPC: 0.35153 cumulative IPC: 0.33310 (Simulation time: 0 hr 5 min 16 sec) 
Heartbeat CPU  0 instructions:   67000000 cycles:   50155675 heartbeat IPC: 0.36659 cumulative IPC: 0.34847 (Simulation time: 0 hr 5 min 19 sec) 
Heartbeat CPU  2 instructions:   58000000 cycles:   51052158 heartbeat IPC: 0.48702 cumulative IPC: 0.34680 (Simulation time: 0 hr 5 min 21 sec) 
Heartbeat CPU  3 instructions:   61000003 cycles:   51774488 heartbeat IPC: 0.32231 cumulative IPC: 0.30912 (Simulation time: 0 hr 5 min 22 sec) 
Heartbeat CPU  1 instructions:   60000000 cycles:   52044684 heartbeat IPC: 0.30243 cumulative IPC: 0.29710 (Simulation time: 0 hr 5 min 23 sec) 
Heartbeat CPU  2 instructions:   59000002 cycles:   54146415 heartbeat IPC: 0.32318 cumulative IPC: 0.34401 (Simulation time: 0 hr 5 min 28 sec) 
Heartbeat CPU  0 instructions:   68000000 cycles:   54344979 heartbeat IPC: 0.23870 cumulative IPC: 0.33103 (Simulation time: 0 hr 5 min 28 sec) 
Heartbeat CPU  3 instructions:   62000001 cycles:   54836965 heartbeat IPC: 0.32653 cumulative IPC: 0.31111 (Simulation time: 0 hr 5 min 29 sec) 
Heartbeat CPU  1 instructions:   61000003 cycles:   55148227 heartbeat IPC: 0.32221 cumulative IPC: 0.29997 (Simulation time: 0 hr 5 min 30 sec) 
Heartbeat CPU  0 instructions:   69000001 cycles:   56744382 heartbeat IPC: 0.41677 cumulative IPC: 0.33818 (Simulation time: 0 hr 5 min 34 sec) 
Heartbeat CPU  2 instructions:   60000000 cycles:   57244047 heartbeat IPC: 0.32283 cumulative IPC: 0.34176 (Simulation time: 0 hr 5 min 36 sec) 
Heartbeat CPU  1 instructions:   62000002 cycles:   57495837 heartbeat IPC: 0.42596 cumulative IPC: 0.30999 (Simulation time: 0 hr 5 min 37 sec) 
Heartbeat CPU  3 instructions:   63000001 cycles:   57925349 heartbeat IPC: 0.32379 cumulative IPC: 0.31241 (Simulation time: 0 hr 5 min 38 sec) 
Heartbeat CPU  0 instructions:   70000003 cycles:   58581214 heartbeat IPC: 0.54442 cumulative IPC: 0.35056 (Simulation time: 0 hr 5 min 40 sec) 
Heartbeat CPU  1 instructions:   63000000 cycles:   59543890 heartbeat IPC: 0.48827 cumulative IPC: 0.32156 (Simulation time: 0 hr 5 min 42 sec) 
Heartbeat CPU  2 instructions:   61000001 cycles:   60510283 heartbeat IPC: 0.30616 cumulative IPC: 0.33819 (Simulation time: 0 hr 5 min 45 sec) 
Heartbeat CPU  3 instructions:   64000000 cycles:   61068048 heartbeat IPC: 0.31820 cumulative IPC: 0.31296 (Simulation time: 0 hr 5 min 46 sec) 
Heartbeat CPU  0 instructions:   71000003 cycles:   61409831 heartbeat IPC: 0.35353 cumulative IPC: 0.35081 (Simulation time: 0 hr 5 min 47 sec) 
Heartbeat CPU  1 instructions:   64000000 cycles:   61439168 heartbeat IPC: 0.52763 cumulative IPC: 0.33323 (Simulation time: 0 hr 5 min 47 sec) 
Heartbeat CPU  1 instructions:   65000000 cycles:   63449350 heartbeat IPC: 0.49747 cumulative IPC: 0.34254 (Simulation time: 0 hr 5 min 53 sec) 
Heartbeat CPU  2 instructions:   62000002 cycles:   63690965 heartbeat IPC: 0.31440 cumulative IPC: 0.33607 (Simulation time: 0 hr 5 min 53 sec) 
Heartbeat CPU  3 instructions:   65000002 cycles:   64272588 heartbeat IPC: 0.31206 cumulative IPC: 0.31288 (Simulation time: 0 hr 5 min 55 sec) 
Heartbeat CPU  0 instructions:   72000000 cycles:   64424692 heartbeat IPC: 0.33169 cumulative IPC: 0.34923 (Simulation time: 0 hr 5 min 56 sec) 
Heartbeat CPU  1 instructions:   66000000 cycles:   65967286 heartbeat IPC: 0.39715 cumulative IPC: 0.34616 (Simulation time: 0 hr 6 min 0 sec) 
Heartbeat CPU  3 instructions:   66000002 cycles:   66527470 heartbeat IPC: 0.44348 cumulative IPC: 0.32052 (Simulation time: 0 hr 6 min 1 sec) 
Heartbeat CPU  2 instructions:   63000000 cycles:   66828478 heartbeat IPC: 0.31872 cumulative IPC: 0.33467 (Simulation time: 0 hr 6 min 2 sec) 
Heartbeat CPU  0 instructions:   73000003 cycles:   67478575 heartbeat IPC: 0.32745 cumulative IPC: 0.34755 (Simulation time: 0 hr 6 min 3 sec) 
Heartbeat CPU  1 instructions:   67000002 cycles:   68777747 heartbeat IPC: 0.35581 cumulative IPC: 0.34683 (Simulation time: 0 hr 6 min 7 sec) 
Heartbeat CPU  3 instructions:   67000000 cycles:   69003455 heartbeat IPC: 0.40388 cumulative IPC: 0.32556 (Simulation time: 0 hr 6 min 8 sec) 
Heartbeat CPU  2 instructions:   64000000 cycles:   69289894 heartbeat IPC: 0.40627 cumulative IPC: 0.33894 (Simulation time: 0 hr 6 min 9 sec) 
Heartbeat CPU  0 instructions:   74000001 cycles:   70495506 heartbeat IPC: 0.33146 cumulative IPC: 0.34641 (Simulation time: 0 hr 6 min 12 sec) 
Heartbeat CPU  2 instructions:   65000002 cycles:   71127877 heartbeat IPC: 0.54408 cumulative IPC: 0.34767 (Simulation time: 0 hr 6 min 14 sec) 
Heartbeat CPU  3 instructions:   68000000 cycles:   71346357 heartbeat IPC: 0.42682 cumulative IPC: 0.33103 (Simulation time: 0 hr 6 min 15 sec) 
Heartbeat CPU  1 instructions:   68000000 cycles:   72119596 heartbeat IPC: 0.29923 cumulative IPC: 0.34322 (Simulation time: 0 hr 6 min 17 sec) 
Heartbeat CPU  2 instructions:   66000001 cycles:   73095339 heartbeat IPC: 0.50827 cumulative IPC: 0.35468 (Simulation time: 0 hr 6 min 20 sec) 
Heartbeat CPU  0 instructions:   75000003 cycles:   73484046 heartbeat IPC: 0.33461 cumulative IPC: 0.34563 (Simulation time: 0 hr 6 min 21 sec) 
Heartbeat CPU  3 instructions:   69000002 cycles:   73710758 heartbeat IPC: 0.42294 cumulative IPC: 0.33578 (Simulation time: 0 hr 6 min 21 sec) 
Heartbeat CPU  1 instructions:   69000001 cycles:   74131347 heartbeat IPC: 0.49708 cumulative IPC: 0.34993 (Simulation time: 0 hr 6 min 23 sec) 
Heartbeat CPU  0 instructions:   76000000 cycles:   75966848 heartbeat IPC: 0.40277 cumulative IPC: 0.34859 (Simulation time: 0 hr 6 min 28 sec) 
Heartbeat CPU  2 instructions:   67000003 cycles:   75998544 heartbeat IPC: 0.34445 cumulative IPC: 0.35406 (Simulation time: 0 hr 6 min 28 sec) 
Heartbeat CPU  1 instructions:   70000003 cycles:   76121289 heartbeat IPC: 0.50253 cumulative IPC: 0.35624 (Simulation time: 0 hr 6 min 29 sec) 
Heartbeat CPU  3 instructions:   70000001 cycles:   76566854 heartbeat IPC: 0.35013 cumulative IPC: 0.33662 (Simulation time: 0 hr 6 min 30 sec) 
Heartbeat CPU  1 instructions:   71000001 cycles:   78079434 heartbeat IPC: 0.51069 cumulative IPC: 0.36228 (Simulation time: 0 hr 6 min 34 sec) 
Heartbeat CPU  2 instructions:   68000000 cycles:   78512273 heartbeat IPC: 0.39781 cumulative IPC: 0.35624 (Simulation time: 0 hr 6 min 36 sec) 
Heartbeat CPU  0 instructions:   77000001 cycles:   78630482 heartbeat IPC: 0.37543 cumulative IPC: 0.35000 (Simulation time: 0 hr 6 min 36 sec) 
Heartbeat CPU  3 instructions:   71000003 cycles:   79494000 heartbeat IPC: 0.34163 cumulative IPC: 0.33691 (Simulation time: 0 hr 6 min 38 sec) 
Heartbeat CPU  1 instructions:   72000000 cycles:   79961294 heartbeat IPC: 0.53139 cumulative IPC: 0.36840 (Simulation time: 0 hr 6 min 40 sec) 
Heartbeat CPU  0 instructions:   78000000 cycles:   81022735 heartbeat IPC: 0.41802 cumulative IPC: 0.35307 (Simulation time: 0 hr 6 min 43 sec) 
Heartbeat CPU  2 instructions:   69000001 cycles:   81637089 heartbeat IPC: 0.32002 cumulative IPC: 0.35413 (Simulation time: 0 hr 6 min 44 sec) 
Heartbeat CPU  1 instructions:   73000002 cycles:   81911017 heartbeat IPC: 0.51289 cumulative IPC: 0.37362 (Simulation time: 0 hr 6 min 45 sec) 
Heartbeat CPU  3 instructions:   72000000 cycles:   82268012 heartbeat IPC: 0.36049 cumulative IPC: 0.33811 (Simulation time: 0 hr 6 min 46 sec) 
DEADLOCK! CPU 0 instr_id: 78574108 translated: 2 fetched: 2 scheduled: 2 executed: 1 is_memory: 1 event: 82599451 current: 83599451

Load Queue Entry
[LQ] entry: 0 instr_id: 0 address: 0 translated: 0 fetched: 0
[LQ] entry: 1 instr_id: 0 address: 0 translated: 0 fetched: 0
[LQ] entry: 2 instr_id: 0 address: 0 translated: 0 fetched: 0
[LQ] entry: 3 instr_id: 78574108 address: aa4a5bddc040 translated: 2 fetched: 0
[LQ] entry: 4 instr_id: 0 address: 0 translated: 0 fetched: 0
[LQ] entry: 5 instr_id: 0 address: 0 translated: 0 fetched: 0
[LQ] entry: 6 instr_id: 0 address: 0 translated: 0 fetched: 0
[LQ] entry: 7 instr_id: 0 address: 0 translated: 0 fetched: 0
[LQ] entry: 8 instr_id: 0 address: 0 translated: 0 fetched: 0
[LQ] entry: 9 instr_id: 0 address: 0 translated: 0 fetched: 0
[LQ] entry: 10 instr_id: 0 address: 0 translated: 0 fetched: 0
[LQ] entry: 11 instr_id: 0 address: 0 translated: 0 fetched: 0
[LQ] entry: 12 instr_id: 0 address: 0 translated: 0 fetched: 0
[LQ] entry: 13 instr_id: 0 address: 0 translated: 0 fetched: 0
[LQ] entry: 14 instr_id: 0 address: 0 translated: 0 fetched: 0
[LQ] entry: 15 instr_id: 0 address: 0 translated: 0 fetched: 0
[LQ] entry: 16 instr_id: 0 address: 0 translated: 0 fetched: 0
[LQ] entry: 17 instr_id: 0 address: 0 translated: 0 fetched: 0
[LQ] entry: 18 instr_id: 0 address: 0 translated: 0 fetched: 0
[LQ] entry: 19 instr_id: 0 address: 0 translated: 0 fetched: 0
[LQ] entry: 20 instr_id: 0 address: 0 translated: 0 fetched: 0
[LQ] entry: 21 instr_id: 0 address: 0 translated: 0 fetched: 0
[LQ] entry: 22 instr_id: 0 address: 0 translated: 0 fetched: 0
[LQ] entry: 23 instr_id: 0 address: 0 translated: 0 fetched: 0
[LQ] entry: 24 instr_id: 0 address: 0 translated: 0 fetched: 0
[LQ] entry: 25 instr_id: 0 address: 0 translated: 0 fetched: 0
[LQ] entry: 26 instr_id: 0 address: 0 translated: 0 fetched: 0
[LQ] entry: 27 instr_id: 0 address: 0 translated: 0 fetched: 0
[LQ] entry: 28 instr_id: 0 address: 0 translated: 0 fetched: 0
[LQ] entry: 29 instr_id: 0 address: 0 translated: 0 fetched: 0
[LQ] entry: 30 instr_id: 0 address: 0 translated: 0 fetched: 0
[LQ] entry: 31 instr_id: 0 address: 0 translated: 0 fetched: 0
[LQ] entry: 32 instr_id: 0 address: 0 translated: 0 fetched: 0
[LQ] entry: 33 instr_id: 0 address: 0 translated: 0 fetched: 0
[LQ] entry: 34 instr_id: 0 address: 0 translated: 0 fetched: 0
[LQ] entry: 35 instr_id: 0 address: 0 translated: 0 fetched: 0
[LQ] entry: 36 instr_id: 0 address: 0 translated: 0 fetched: 0
[LQ] entry: 37 instr_id: 0 address: 0 translated: 0 fetched: 0
[LQ] entry: 38 instr_id: 0 address: 0 translated: 0 fetched: 0
[LQ] entry: 39 instr_id: 0 address: 0 translated: 0 fetched: 0
[LQ] entry: 40 instr_id: 0 address: 0 translated: 0 fetched: 0
[LQ] entry: 41 instr_id: 0 address: 0 translated: 0 fetched: 0
[LQ] entry: 42 instr_id: 0 address: 0 translated: 0 fetched: 0
[LQ] entry: 43 instr_id: 0 address: 0 translated: 0 fetched: 0
[LQ] entry: 44 instr_id: 0 address: 0 translated: 0 fetched: 0
[LQ] entry: 45 instr_id: 0 address: 0 translated: 0 fetched: 0
[LQ] entry: 46 instr_id: 0 address: 0 translated: 0 fetched: 0
[LQ] entry: 47 instr_id: 0 address: 0 translated: 0 fetched: 0
[LQ] entry: 48 instr_id: 0 address: 0 translated: 0 fetched: 0
[LQ] entry: 49 instr_id: 0 address: 0 translated: 0 fetched: 0
[LQ] entry: 50 instr_id: 0 address: 0 translated: 0 fetched: 0
[LQ] entry: 51 instr_id: 0 address: 0 translated: 0 fetched: 0
[LQ] entry: 52 instr_id: 0 address: 0 translated: 0 fetched: 0
[LQ] entry: 53 instr_id: 0 address: 0 translated: 0 fetched: 0
[LQ] entry: 54 instr_id: 0 address: 0 translated: 0 fetched: 0
[LQ] entry: 55 instr_id: 0 address: 0 translated: 0 fetched: 0
[LQ] entry: 56 instr_id: 0 address: 0 translated: 0 fetched: 0
[LQ] entry: 57 instr_id: 0 address: 0 translated: 0 fetched: 0
[LQ] entry: 58 instr_id: 0 address: 0 translated: 0 fetched: 0
[LQ] entry: 59 instr_id: 0 address: 0 translated: 0 fetched: 0
[LQ] entry: 60 instr_id: 0 address: 0 translated: 0 fetched: 0
[LQ] entry: 61 instr_id: 0 address: 0 translated: 0 fetched: 0
[LQ] entry: 62 instr_id: 0 address: 0 translated: 0 fetched: 0
[LQ] entry: 63 instr_id: 0 address: 0 translated: 0 fetched: 0
[LQ] entry: 64 instr_id: 0 address: 0 translated: 0 fetched: 0
[LQ] entry: 65 instr_id: 0 address: 0 translated: 0 fetched: 0
[LQ] entry: 66 instr_id: 0 address: 0 translated: 0 fetched: 0
[LQ] entry: 67 instr_id: 0 address: 0 translated: 0 fetched: 0
[LQ] entry: 68 instr_id: 0 address: 0 translated: 0 fetched: 0
[LQ] entry: 69 instr_id: 0 address: 0 translated: 0 fetched: 0
[LQ] entry: 70 instr_id: 0 address: 0 translated: 0 fetched: 0
[LQ] entry: 71 instr_id: 0 address: 0 translated: 0 fetched: 0

Store Queue Entry
[SQ] entry: 0 instr_id: 0 address: 0 translated: 0 fetched: 0
[SQ] entry: 1 instr_id: 0 address: 0 translated: 0 fetched: 0
[SQ] entry: 2 instr_id: 0 address: 0 translated: 0 fetched: 0
[SQ] entry: 3 instr_id: 0 address: 0 translated: 0 fetched: 0
[SQ] entry: 4 instr_id: 0 address: 0 translated: 0 fetched: 0
[SQ] entry: 5 instr_id: 0 address: 0 translated: 0 fetched: 0
[SQ] entry: 6 instr_id: 0 address: 0 translated: 0 fetched: 0
[SQ] entry: 7 instr_id: 0 address: 0 translated: 0 fetched: 0
[SQ] entry: 8 instr_id: 0 address: 0 translated: 0 fetched: 0
[SQ] entry: 9 instr_id: 0 address: 0 translated: 0 fetched: 0
[SQ] entry: 10 instr_id: 0 address: 0 translated: 0 fetched: 0
[SQ] entry: 11 instr_id: 0 address: 0 translated: 0 fetched: 0
[SQ] entry: 12 instr_id: 0 address: 0 translated: 0 fetched: 0
[SQ] entry: 13 instr_id: 0 address: 0 translated: 0 fetched: 0
[SQ] entry: 14 instr_id: 0 address: 0 translated: 0 fetched: 0
[SQ] entry: 15 instr_id: 0 address: 0 translated: 0 fetched: 0
[SQ] entry: 16 instr_id: 0 address: 0 translated: 0 fetched: 0
[SQ] entry: 17 instr_id: 0 address: 0 translated: 0 fetched: 0
[SQ] entry: 18 instr_id: 0 address: 0 translated: 0 fetched: 0
[SQ] entry: 19 instr_id: 0 address: 0 translated: 0 fetched: 0
[SQ] entry: 20 instr_id: 0 address: 0 translated: 0 fetched: 0
[SQ] entry: 21 instr_id: 78574109 address: aa4a5bdd1df0 translated: 2 fetched: 0
[SQ] entry: 22 instr_id: 78574153 address: aa4a5bdd1df4 translated: 2 fetched: 0
[SQ] entry: 23 instr_id: 78574158 address: aa4a5bdd1df6 translated: 2 fetched: 0
[SQ] entry: 24 instr_id: 78574163 address: aa4a5bdd1df8 translated: 2 fetched: 0
[SQ] entry: 25 instr_id: 78574168 address: aa4a5bdd1dfa translated: 2 fetched: 0
[SQ] entry: 26 instr_id: 78574173 address: aa4a5bdd1dfc translated: 2 fetched: 0
[SQ] entry: 27 instr_id: 78574178 address: aa4a5bdd1dfe translated: 2 fetched: 0
[SQ] entry: 28 instr_id: 78574183 address: aa4a5bdd1e00 translated: 2 fetched: 0
[SQ] entry: 29 instr_id: 78574188 address: aa4a5bdd1e02 translated: 2 fetched: 0
[SQ] entry: 30 instr_id: 78574196 address: aa4a5bdd1dd8 translated: 2 fetched: 0
[SQ] entry: 31 instr_id: 78574197 address: f4a57b173d4e translated: 2 fetched: 0
[SQ] entry: 32 instr_id: 78574206 address: 5b4487b6d814 translated: 2 fetched: 0
[SQ] entry: 33 instr_id: 78574222 address: 5b4487b6c034 translated: 2 fetched: 0
[SQ] entry: 34 instr_id: 78574224 address: aa4a5bdd1e08 translated: 2 fetched: 0
[SQ] entry: 35 instr_id: 78574225 address: aa4a5bdd1e0c translated: 2 fetched: 0
[SQ] entry: 36 instr_id: 78574226 address: aa4a5bdd1e20 translated: 2 fetched: 0
[SQ] entry: 37 instr_id: 78574228 address: aa4a5bdd1e28 translated: 2 fetched: 0
[SQ] entry: 38 instr_id: 78574230 address: aa4a5bdd1e10 translated: 2 fetched: 0
[SQ] entry: 39 instr_id: 78574231 address: aa4a5bdd1e18 translated: 2 fetched: 0
[SQ] entry: 40 instr_id: 78574232 address: aa4a5bdd1e24 translated: 2 fetched: 0
[SQ] entry: 41 instr_id: 78574235 address: aa4a5bdd1e18 translated: 2 fetched: 0
[SQ] entry: 42 instr_id: 0 address: 0 translated: 0 fetched: 0
[SQ] entry: 43 instr_id: 0 address: 0 translated: 0 fetched: 0
[SQ] entry: 44 instr_id: 0 address: 0 translated: 0 fetched: 0
[SQ] entry: 45 instr_id: 0 address: 0 translated: 0 fetched: 0
[SQ] entry: 46 instr_id: 0 address: 0 translated: 0 fetched: 0
[SQ] entry: 47 instr_id: 0 address: 0 translated: 0 fetched: 0
[SQ] entry: 48 instr_id: 0 address: 0 translated: 0 fetched: 0
[SQ] entry: 49 instr_id: 0 address: 0 translated: 0 fetched: 0
[SQ] entry: 50 instr_id: 0 address: 0 translated: 0 fetched: 0
[SQ] entry: 51 instr_id: 0 address: 0 translated: 0 fetched: 0
[SQ] entry: 52 instr_id: 0 address: 0 translated: 0 fetched: 0
[SQ] entry: 53 instr_id: 0 address: 0 translated: 0 fetched: 0
[SQ] entry: 54 instr_id: 0 address: 0 translated: 0 fetched: 0
[SQ] entry: 55 instr_id: 0 address: 0 translated: 0 fetched: 0

L1D_MSHR Entry
[L1D_MSHR] entry: 0 instr_id: 78574108 rob_index: 28 address: 2a9296f7701 full_addr: aa4a5bddc040 type: 0 fill_level: 1 lq_index: 3 sq_index: 0
[L1D_MSHR] entry: 1 instr_id: 0 rob_index: -1 address: 0 full_addr: 0 type: 0 fill_level: -1 lq_index: 0 sq_index: 0
[L1D_MSHR] entry: 2 instr_id: 0 rob_index: -1 address: 0 full_addr: 0 type: 0 fill_level: -1 lq_index: 0 sq_index: 0
[L1D_MSHR] entry: 3 instr_id: 0 rob_index: -1 address: 0 full_addr: 0 type: 0 fill_level: -1 lq_index: 0 sq_index: 0
[L1D_MSHR] entry: 4 instr_id: 0 rob_index: -1 address: 0 full_addr: 0 type: 0 fill_level: -1 lq_index: 0 sq_index: 0
[L1D_MSHR] entry: 5 instr_id: 0 rob_index: -1 address: 0 full_addr: 0 type: 0 fill_level: -1 lq_index: 0 sq_index: 0
[L1D_MSHR] entry: 6 instr_id: 0 rob_index: -1 address: 0 full_addr: 0 type: 0 fill_level: -1 lq_index: 0 sq_index: 0
[L1D_MSHR] entry: 7 instr_id: 0 rob_index: -1 address: 0 full_addr: 0 type: 0 fill_level: -1 lq_index: 0 sq_index: 0
[L1D_MSHR] entry: 8 instr_id: 0 rob_index: -1 address: 0 full_addr: 0 type: 0 fill_level: -1 lq_index: 0 sq_index: 0
[L1D_MSHR] entry: 9 instr_id: 0 rob_index: -1 address: 0 full_addr: 0 type: 0 fill_level: -1 lq_index: 0 sq_index: 0
[L1D_MSHR] entry: 10 instr_id: 0 rob_index: -1 address: 0 full_addr: 0 type: 0 fill_level: -1 lq_index: 0 sq_index: 0
[L1D_MSHR] entry: 11 instr_id: 0 rob_index: -1 address: 0 full_addr: 0 type: 0 fill_level: -1 lq_index: 0 sq_index: 0
[L1D_MSHR] entry: 12 instr_id: 0 rob_index: -1 address: 0 full_addr: 0 type: 0 fill_level: -1 lq_index: 0 sq_index: 0
[L1D_MSHR] entry: 13 instr_id: 0 rob_index: -1 address: 0 full_addr: 0 type: 0 fill_level: -1 lq_index: 0 sq_index: 0
[L1D_MSHR] entry: 14 instr_id: 0 rob_index: -1 address: 0 full_addr: 0 type: 0 fill_level: -1 lq_index: 0 sq_index: 0
[L1D_MSHR] entry: 15 instr_id: 0 rob_index: -1 address: 0 full_addr: 0 type: 0 fill_level: -1 lq_index: 0 sq_index: 0
perceptron-no-coop_pythia-no-ship-4core: src/main.cc:323: void print_deadlock(uint32_t): Assertion `0' failed.
