*************************************************
   ChampSim Multicore Out-of-Order Simulator
   Last compiled: Apr 16 2025 04:47:48
*************************************************
parsing config file: /pref/Pythia/config/coop_pythia.ini

trace_0 /pref/Pythia/NUTCH/traces/nutch_phase2_core0.trace.xz
trace_1 /pref/Pythia/NUTCH/traces/nutch_phase2_core1.trace.xz
trace_2 /pref/Pythia/NUTCH/traces/nutch_phase2_core2.trace.xz
trace_3 /pref/Pythia/NUTCH/traces/nutch_phase2_core3.trace.xz
Initialize SHIP state
warmup_instructions 50000000
simulation_instructions 150000000
champsim_seed 7158
measure_ipc 0
measure_ipc_epoch 1000
measure_dram_bw 1
measure_dram_bw_epoch 256
measure_cache_acc 1
measure_cache_acc_epoch 1024
l1d_perfect 0
l2c_perfect 0
llc_perfect 0
l1d_semi_perfect 0
l2c_semi_perfect 0
llc_semi_perfect 0
semi_perfect_cache_page_buffer_size 64

num_cpus 4
cpu_freq 4000
dram_io_freq 2400
page_size 4096
block_size 64
max_read_per_cycle 8
max_fill_per_cycle 1
dram_channels 2
log2_dram_channels 1
dram_ranks 1
dram_banks 8
dram_rows 65536
dram_columns 128
dram_row_size 8
dram_size 8192
dram_pages 2097152
======= Prefetcher Knob Settings =======
coop_enable_multicore: 1
coop_enable_bw_throttling: 1
coop_rl_enable: 1
coop_rl_ipc_threshold: 
coop_rl_alpha_high_ipc: 0.1
coop_rl_alpha_low_ipc: 0.02
coop_rl_bw_threshold: 2
========================================
fetch_width 6
decode_width 6
exec_width 4
lq_width 2
sq_width 2
retire_width 4
scheduler_size 128
branch_mispredict_penalty 20
rob_size 256
lq_size 72
sq_size 56
num_instr_destinations_sparc 4
num_instr_destinations 2
num_instr_sources 4

itlb_set 16
itlb_way 8
itlb_rq_size 16
itlb_wq_size 16
itlb_pq_size 0
itlb_mshr_size 8
itlb_latency 1

dtlb_set 16
dtlb_way 4
dtlb_rq_size 16
dtlb_wq_size 16
dtlb_pq_size 0
dtlb_mshr_size 8
dtlb_latency 1

stlb_set 128
stlb_way 12
stlb_rq_size 32
stlb_wq_size 32
stlb_pq_size 0
stlb_mshr_size 16
stlb_latency 8

l1i_size 32
l1i_set 64
l1i_way 8
l1i_rq_size 64
l1i_wq_size 64
l1i_pq_size 8
l1i_mshr_size 8
l1i_latency 1

l1d_size 32
l1d_set 64
l1d_way 8
l1d_rq_size 64
l1d_wq_size 64
l1d_pq_size 16
l1d_mshr_size 16
l1d_latency 4

l2c_size 256
l2c_set 512
l2c_way 8
l2c_rq_size 64
l2c_wq_size 32
l2c_pq_size 64
l2c_mshr_size 64
l2c_latency 10

llc_size 8192
llc_set 8192
llc_way 16
llc_rq_size 256
llc_wq_size 256
llc_pq_size 128
llc_mshr_size 256
llc_latency 20

dram_channel_width 8
dram_wq_size 64
dram_rq_size 64
tRP 15
tRCD 15
tCAS 12.5
dram_dbus_turn_around_time 30
dram_write_high_wm 56
dram_write_low_wm 48
min_dram_writes_per_switch 16
dram_mtps 2400
dram_dbus_return_time 13

[CoopPythia Config]
 - Adaptive Alpha: Enabled
 - Multicore Mode: Enabled
 - BW Throttling: Enabled
 - IPC Threshold: 5
 - BW Threshold: 2

Heartbeat CPU  3 instructions:    1000001 cycles:     598585 heartbeat IPC: 1.67061 cumulative IPC: 1.67061 (Simulation time: 0 hr 0 min 5 sec) 
Heartbeat CPU  0 instructions:    1000002 cycles:     617552 heartbeat IPC: 1.61930 cumulative IPC: 1.61930 (Simulation time: 0 hr 0 min 6 sec) 
Heartbeat CPU  1 instructions:    1000001 cycles:     648317 heartbeat IPC: 1.54246 cumulative IPC: 1.54246 (Simulation time: 0 hr 0 min 6 sec) 
Heartbeat CPU  2 instructions:    1000001 cycles:     649175 heartbeat IPC: 1.54042 cumulative IPC: 1.54042 (Simulation time: 0 hr 0 min 6 sec) 
Heartbeat CPU  3 instructions:    2000001 cycles:    1196871 heartbeat IPC: 1.67144 cumulative IPC: 1.67102 (Simulation time: 0 hr 0 min 11 sec) 
Heartbeat CPU  0 instructions:    2000001 cycles:    1252144 heartbeat IPC: 1.57581 cumulative IPC: 1.59726 (Simulation time: 0 hr 0 min 11 sec) 
Heartbeat CPU  1 instructions:    2000002 cycles:    1296445 heartbeat IPC: 1.54291 cumulative IPC: 1.54268 (Simulation time: 0 hr 0 min 12 sec) 
Heartbeat CPU  2 instructions:    2000001 cycles:    1298233 heartbeat IPC: 1.54069 cumulative IPC: 1.54056 (Simulation time: 0 hr 0 min 12 sec) 
Heartbeat CPU  3 instructions:    3000001 cycles:    1795150 heartbeat IPC: 1.67146 cumulative IPC: 1.67117 (Simulation time: 0 hr 0 min 16 sec) 
Heartbeat CPU  0 instructions:    3000000 cycles:    1864245 heartbeat IPC: 1.63372 cumulative IPC: 1.60923 (Simulation time: 0 hr 0 min 17 sec) 
Heartbeat CPU  1 instructions:    3000000 cycles:    1944565 heartbeat IPC: 1.54292 cumulative IPC: 1.54276 (Simulation time: 0 hr 0 min 17 sec) 
Heartbeat CPU  2 instructions:    3000000 cycles:    1947276 heartbeat IPC: 1.54073 cumulative IPC: 1.54061 (Simulation time: 0 hr 0 min 17 sec) 
Heartbeat CPU  3 instructions:    4000000 cycles:    2393438 heartbeat IPC: 1.67143 cumulative IPC: 1.67124 (Simulation time: 0 hr 0 min 21 sec) 
Heartbeat CPU  0 instructions:    4000000 cycles:    2440575 heartbeat IPC: 1.73512 cumulative IPC: 1.63896 (Simulation time: 0 hr 0 min 22 sec) 
Heartbeat CPU  1 instructions:    4000000 cycles:    2592689 heartbeat IPC: 1.54291 cumulative IPC: 1.54280 (Simulation time: 0 hr 0 min 23 sec) 
Heartbeat CPU  2 instructions:    4000000 cycles:    2596337 heartbeat IPC: 1.54069 cumulative IPC: 1.54063 (Simulation time: 0 hr 0 min 23 sec) 
Heartbeat CPU  3 instructions:    5000001 cycles:    2991718 heartbeat IPC: 1.67146 cumulative IPC: 1.67128 (Simulation time: 0 hr 0 min 27 sec) 
Heartbeat CPU  0 instructions:    5000000 cycles:    3011868 heartbeat IPC: 1.75042 cumulative IPC: 1.66010 (Simulation time: 0 hr 0 min 27 sec) 
Heartbeat CPU  1 instructions:    5000002 cycles:    3240784 heartbeat IPC: 1.54299 cumulative IPC: 1.54284 (Simulation time: 0 hr 0 min 29 sec) 
Heartbeat CPU  2 instructions:    5000000 cycles:    3245387 heartbeat IPC: 1.54071 cumulative IPC: 1.54065 (Simulation time: 0 hr 0 min 29 sec) 
Heartbeat CPU  3 instructions:    6000001 cycles:    3590006 heartbeat IPC: 1.67144 cumulative IPC: 1.67131 (Simulation time: 0 hr 0 min 32 sec) 
Heartbeat CPU  0 instructions:    6000001 cycles:    3626692 heartbeat IPC: 1.62648 cumulative IPC: 1.65440 (Simulation time: 0 hr 0 min 33 sec) 
Heartbeat CPU  1 instructions:    6000000 cycles:    3888918 heartbeat IPC: 1.54289 cumulative IPC: 1.54285 (Simulation time: 0 hr 0 min 35 sec) 
Heartbeat CPU  2 instructions:    6000000 cycles:    3894440 heartbeat IPC: 1.54071 cumulative IPC: 1.54066 (Simulation time: 0 hr 0 min 35 sec) 
Heartbeat CPU  3 instructions:    7000001 cycles:    4188286 heartbeat IPC: 1.67146 cumulative IPC: 1.67133 (Simulation time: 0 hr 0 min 38 sec) 
Heartbeat CPU  0 instructions:    7000001 cycles:    4200424 heartbeat IPC: 1.74297 cumulative IPC: 1.66650 (Simulation time: 0 hr 0 min 38 sec) 
Heartbeat CPU  1 instructions:    7000003 cycles:    4536960 heartbeat IPC: 1.54311 cumulative IPC: 1.54288 (Simulation time: 0 hr 0 min 41 sec) 
Heartbeat CPU  2 instructions:    7000002 cycles:    4543485 heartbeat IPC: 1.54073 cumulative IPC: 1.54067 (Simulation time: 0 hr 0 min 41 sec) 
Heartbeat CPU  0 instructions:    8000000 cycles:    4737272 heartbeat IPC: 1.86272 cumulative IPC: 1.68874 (Simulation time: 0 hr 0 min 42 sec) 
Heartbeat CPU  3 instructions:    8000000 cycles:    4786571 heartbeat IPC: 1.67144 cumulative IPC: 1.67134 (Simulation time: 0 hr 0 min 43 sec) 
Heartbeat CPU  1 instructions:    8000000 cycles:    5185024 heartbeat IPC: 1.54305 cumulative IPC: 1.54291 (Simulation time: 0 hr 0 min 47 sec) 
Heartbeat CPU  2 instructions:    8000000 cycles:    5192541 heartbeat IPC: 1.54070 cumulative IPC: 1.54067 (Simulation time: 0 hr 0 min 47 sec) 
Heartbeat CPU  0 instructions:    9000003 cycles:    5273298 heartbeat IPC: 1.86559 cumulative IPC: 1.70671 (Simulation time: 0 hr 0 min 47 sec) 
Heartbeat CPU  3 instructions:    9000001 cycles:    5384855 heartbeat IPC: 1.67145 cumulative IPC: 1.67135 (Simulation time: 0 hr 0 min 48 sec) 
Heartbeat CPU  1 instructions:    9000001 cycles:    5833112 heartbeat IPC: 1.54300 cumulative IPC: 1.54292 (Simulation time: 0 hr 0 min 52 sec) 
Heartbeat CPU  2 instructions:    9000001 cycles:    5841599 heartbeat IPC: 1.54070 cumulative IPC: 1.54067 (Simulation time: 0 hr 0 min 52 sec) 
Heartbeat CPU  3 instructions:   10000001 cycles:    5983140 heartbeat IPC: 1.67144 cumulative IPC: 1.67136 (Simulation time: 0 hr 0 min 54 sec) 
Heartbeat CPU  0 instructions:   10000002 cycles:    6121764 heartbeat IPC: 1.17860 cumulative IPC: 1.63352 (Simulation time: 0 hr 0 min 55 sec) 
Heartbeat CPU  1 instructions:   10000002 cycles:    6481044 heartbeat IPC: 1.54337 cumulative IPC: 1.54296 (Simulation time: 0 hr 0 min 58 sec) 
Heartbeat CPU  2 instructions:   10000001 cycles:    6490647 heartbeat IPC: 1.54072 cumulative IPC: 1.54068 (Simulation time: 0 hr 0 min 58 sec) 
Heartbeat CPU  3 instructions:   11000001 cycles:    6581422 heartbeat IPC: 1.67145 cumulative IPC: 1.67137 (Simulation time: 0 hr 0 min 59 sec) 
Heartbeat CPU  0 instructions:   11000000 cycles:    6617668 heartbeat IPC: 2.01652 cumulative IPC: 1.66222 (Simulation time: 0 hr 1 min 0 sec) 
Heartbeat CPU  0 instructions:   12000000 cycles:    7061852 heartbeat IPC: 2.25132 cumulative IPC: 1.69927 (Simulation time: 0 hr 1 min 4 sec) 
Heartbeat CPU  1 instructions:   11000002 cycles:    7129075 heartbeat IPC: 1.54314 cumulative IPC: 1.54298 (Simulation time: 0 hr 1 min 5 sec) 
Heartbeat CPU  2 instructions:   11000002 cycles:    7139701 heartbeat IPC: 1.54071 cumulative IPC: 1.54068 (Simulation time: 0 hr 1 min 5 sec) 
Heartbeat CPU  3 instructions:   12000000 cycles:    7179706 heartbeat IPC: 1.67145 cumulative IPC: 1.67138 (Simulation time: 0 hr 1 min 5 sec) 
Heartbeat CPU  0 instructions:   13000001 cycles:    7509831 heartbeat IPC: 2.23225 cumulative IPC: 1.73106 (Simulation time: 0 hr 1 min 9 sec) 
Heartbeat CPU  1 instructions:   12000000 cycles:    7777098 heartbeat IPC: 1.54315 cumulative IPC: 1.54299 (Simulation time: 0 hr 1 min 11 sec) 
Heartbeat CPU  3 instructions:   13000002 cycles:    7779752 heartbeat IPC: 1.66654 cumulative IPC: 1.67100 (Simulation time: 0 hr 1 min 11 sec) 
Heartbeat CPU  2 instructions:   12000000 cycles:    7788753 heartbeat IPC: 1.54071 cumulative IPC: 1.54068 (Simulation time: 0 hr 1 min 11 sec) 
Heartbeat CPU  0 instructions:   14000000 cycles:    7948224 heartbeat IPC: 2.28106 cumulative IPC: 1.76140 (Simulation time: 0 hr 1 min 13 sec) 
Heartbeat CPU  3 instructions:   14000002 cycles:    8381447 heartbeat IPC: 1.66197 cumulative IPC: 1.67036 (Simulation time: 0 hr 1 min 17 sec) 
Heartbeat CPU  0 instructions:   15000003 cycles:    8386914 heartbeat IPC: 2.27952 cumulative IPC: 1.78850 (Simulation time: 0 hr 1 min 17 sec) 
Heartbeat CPU  1 instructions:   13000002 cycles:    8426612 heartbeat IPC: 1.53962 cumulative IPC: 1.54273 (Simulation time: 0 hr 1 min 18 sec) 
Heartbeat CPU  2 instructions:   13000001 cycles:    8439134 heartbeat IPC: 1.53756 cumulative IPC: 1.54044 (Simulation time: 0 hr 1 min 18 sec) 
Heartbeat CPU  0 instructions:   16000000 cycles:    8829534 heartbeat IPC: 2.25927 cumulative IPC: 1.81210 (Simulation time: 0 hr 1 min 22 sec) 
Heartbeat CPU  3 instructions:   15000002 cycles:    8983142 heartbeat IPC: 1.66197 cumulative IPC: 1.66979 (Simulation time: 0 hr 1 min 23 sec) 
Heartbeat CPU  1 instructions:   14000000 cycles:    9074662 heartbeat IPC: 1.54309 cumulative IPC: 1.54276 (Simulation time: 0 hr 1 min 24 sec) 
Heartbeat CPU  2 instructions:   14000002 cycles:    9087253 heartbeat IPC: 1.54293 cumulative IPC: 1.54062 (Simulation time: 0 hr 1 min 24 sec) 
Heartbeat CPU  0 instructions:   17000003 cycles:    9274206 heartbeat IPC: 2.24886 cumulative IPC: 1.83304 (Simulation time: 0 hr 1 min 26 sec) 
Heartbeat CPU  3 instructions:   16000000 cycles:    9584838 heartbeat IPC: 1.66197 cumulative IPC: 1.66930 (Simulation time: 0 hr 1 min 29 sec) 
Heartbeat CPU  0 instructions:   18000001 cycles:    9716705 heartbeat IPC: 2.25989 cumulative IPC: 1.85248 (Simulation time: 0 hr 1 min 31 sec) 
Heartbeat CPU  1 instructions:   15000001 cycles:    9722702 heartbeat IPC: 1.54312 cumulative IPC: 1.54278 (Simulation time: 0 hr 1 min 31 sec) 
Heartbeat CPU  2 instructions:   15000002 cycles:    9735374 heartbeat IPC: 1.54292 cumulative IPC: 1.54077 (Simulation time: 0 hr 1 min 31 sec) 
Heartbeat CPU  0 instructions:   19000003 cycles:   10165769 heartbeat IPC: 2.22686 cumulative IPC: 1.86902 (Simulation time: 0 hr 1 min 35 sec) 
Heartbeat CPU  3 instructions:   17000002 cycles:   10186534 heartbeat IPC: 1.66197 cumulative IPC: 1.66887 (Simulation time: 0 hr 1 min 35 sec) 
Heartbeat CPU  1 instructions:   16000000 cycles:   10370710 heartbeat IPC: 1.54319 cumulative IPC: 1.54281 (Simulation time: 0 hr 1 min 37 sec) 
Heartbeat CPU  2 instructions:   16000000 cycles:   10383490 heartbeat IPC: 1.54293 cumulative IPC: 1.54091 (Simulation time: 0 hr 1 min 37 sec) 
Heartbeat CPU  0 instructions:   20000000 cycles:   10635697 heartbeat IPC: 2.12798 cumulative IPC: 1.88046 (Simulation time: 0 hr 1 min 40 sec) 
Heartbeat CPU  3 instructions:   18000002 cycles:   10788230 heartbeat IPC: 1.66197 cumulative IPC: 1.66849 (Simulation time: 0 hr 1 min 41 sec) 
Heartbeat CPU  1 instructions:   17000000 cycles:   11018757 heartbeat IPC: 1.54310 cumulative IPC: 1.54282 (Simulation time: 0 hr 1 min 44 sec) 
Heartbeat CPU  2 instructions:   17000001 cycles:   11031604 heartbeat IPC: 1.54294 cumulative IPC: 1.54103 (Simulation time: 0 hr 1 min 44 sec) 
Heartbeat CPU  0 instructions:   21000000 cycles:   11105267 heartbeat IPC: 2.12961 cumulative IPC: 1.89099 (Simulation time: 0 hr 1 min 45 sec) 
Heartbeat CPU  3 instructions:   19000002 cycles:   11389927 heartbeat IPC: 1.66197 cumulative IPC: 1.66814 (Simulation time: 0 hr 1 min 47 sec) 
Heartbeat CPU  0 instructions:   22000001 cycles:   11573726 heartbeat IPC: 2.13466 cumulative IPC: 1.90086 (Simulation time: 0 hr 1 min 49 sec) 
Heartbeat CPU  1 instructions:   18000003 cycles:   11666786 heartbeat IPC: 1.54315 cumulative IPC: 1.54284 (Simulation time: 0 hr 1 min 50 sec) 
Heartbeat CPU  2 instructions:   18000003 cycles:   11679727 heartbeat IPC: 1.54292 cumulative IPC: 1.54113 (Simulation time: 0 hr 1 min 50 sec) 
Heartbeat CPU  3 instructions:   20000000 cycles:   11991620 heartbeat IPC: 1.66197 cumulative IPC: 1.66783 (Simulation time: 0 hr 1 min 53 sec) 
Heartbeat CPU  0 instructions:   23000000 cycles:   12033421 heartbeat IPC: 2.17535 cumulative IPC: 1.91134 (Simulation time: 0 hr 1 min 54 sec) 
Heartbeat CPU  1 instructions:   19000000 cycles:   12314826 heartbeat IPC: 1.54311 cumulative IPC: 1.54286 (Simulation time: 0 hr 1 min 56 sec) 
Heartbeat CPU  2 instructions:   19000000 cycles:   12327844 heartbeat IPC: 1.54293 cumulative IPC: 1.54123 (Simulation time: 0 hr 1 min 56 sec) 
Heartbeat CPU  3 instructions:   21000002 cycles:   12593319 heartbeat IPC: 1.66196 cumulative IPC: 1.66755 (Simulation time: 0 hr 1 min 59 sec) 
Heartbeat CPU  0 instructions:   24000000 cycles:   12600372 heartbeat IPC: 1.76382 cumulative IPC: 1.90471 (Simulation time: 0 hr 1 min 59 sec) 
Heartbeat CPU  1 instructions:   20000000 cycles:   12962854 heartbeat IPC: 1.54314 cumulative IPC: 1.54287 (Simulation time: 0 hr 2 min 2 sec) 
Heartbeat CPU  2 instructions:   20000000 cycles:   12975958 heartbeat IPC: 1.54294 cumulative IPC: 1.54131 (Simulation time: 0 hr 2 min 2 sec) 
Heartbeat CPU  3 instructions:   22000002 cycles:   13195014 heartbeat IPC: 1.66197 cumulative IPC: 1.66730 (Simulation time: 0 hr 2 min 4 sec) 
Heartbeat CPU  0 instructions:   25000001 cycles:   13241341 heartbeat IPC: 1.56014 cumulative IPC: 1.88803 (Simulation time: 0 hr 2 min 4 sec) 
Heartbeat CPU  1 instructions:   21000002 cycles:   13610898 heartbeat IPC: 1.54311 cumulative IPC: 1.54288 (Simulation time: 0 hr 2 min 8 sec) 
Heartbeat CPU  2 instructions:   21000002 cycles:   13624074 heartbeat IPC: 1.54294 cumulative IPC: 1.54139 (Simulation time: 0 hr 2 min 8 sec) 
Heartbeat CPU  3 instructions:   23000002 cycles:   13796708 heartbeat IPC: 1.66197 cumulative IPC: 1.66706 (Simulation time: 0 hr 2 min 9 sec) 
Heartbeat CPU  0 instructions:   26000001 cycles:   13884077 heartbeat IPC: 1.55585 cumulative IPC: 1.87265 (Simulation time: 0 hr 2 min 10 sec) 
Heartbeat CPU  1 instructions:   22000002 cycles:   14258940 heartbeat IPC: 1.54311 cumulative IPC: 1.54289 (Simulation time: 0 hr 2 min 14 sec) 
Heartbeat CPU  2 instructions:   22000000 cycles:   14272192 heartbeat IPC: 1.54293 cumulative IPC: 1.54146 (Simulation time: 0 hr 2 min 14 sec) 
Heartbeat CPU  3 instructions:   24000000 cycles:   14398404 heartbeat IPC: 1.66197 cumulative IPC: 1.66685 (Simulation time: 0 hr 2 min 15 sec) 
Heartbeat CPU  0 instructions:   27000000 cycles:   14505403 heartbeat IPC: 1.60946 cumulative IPC: 1.86138 (Simulation time: 0 hr 2 min 16 sec) 
Heartbeat CPU  1 instructions:   23000000 cycles:   14907002 heartbeat IPC: 1.54306 cumulative IPC: 1.54290 (Simulation time: 0 hr 2 min 20 sec) 
Heartbeat CPU  2 instructions:   23000000 cycles:   14920316 heartbeat IPC: 1.54291 cumulative IPC: 1.54152 (Simulation time: 0 hr 2 min 20 sec) 
Heartbeat CPU  3 instructions:   25000002 cycles:   15000100 heartbeat IPC: 1.66197 cumulative IPC: 1.66666 (Simulation time: 0 hr 2 min 20 sec) 
Heartbeat CPU  0 instructions:   28000000 cycles:   15117314 heartbeat IPC: 1.63422 cumulative IPC: 1.85218 (Simulation time: 0 hr 2 min 22 sec) 
Heartbeat CPU  1 instructions:   24000000 cycles:   15555035 heartbeat IPC: 1.54313 cumulative IPC: 1.54291 (Simulation time: 0 hr 2 min 26 sec) 
Heartbeat CPU  2 instructions:   24000000 cycles:   15568425 heartbeat IPC: 1.54295 cumulative IPC: 1.54158 (Simulation time: 0 hr 2 min 26 sec) 
Heartbeat CPU  3 instructions:   26000002 cycles:   15601796 heartbeat IPC: 1.66197 cumulative IPC: 1.66647 (Simulation time: 0 hr 2 min 26 sec) 
Heartbeat CPU  0 instructions:   29000000 cycles:   15719140 heartbeat IPC: 1.66161 cumulative IPC: 1.84488 (Simulation time: 0 hr 2 min 27 sec) 
Heartbeat CPU  1 instructions:   25000001 cycles:   16203073 heartbeat IPC: 1.54312 cumulative IPC: 1.54292 (Simulation time: 0 hr 2 min 31 sec) 
Heartbeat CPU  3 instructions:   27000002 cycles:   16203490 heartbeat IPC: 1.66197 cumulative IPC: 1.66631 (Simulation time: 0 hr 2 min 31 sec) 
Heartbeat CPU  2 instructions:   25000000 cycles:   16216546 heartbeat IPC: 1.54292 cumulative IPC: 1.54164 (Simulation time: 0 hr 2 min 32 sec) 
Heartbeat CPU  0 instructions:   30000002 cycles:   16254147 heartbeat IPC: 1.86914 cumulative IPC: 1.84568 (Simulation time: 0 hr 2 min 32 sec) 
Heartbeat CPU  0 instructions:   31000000 cycles:   16738342 heartbeat IPC: 2.06528 cumulative IPC: 1.85204 (Simulation time: 0 hr 2 min 37 sec) 
Heartbeat CPU  3 instructions:   28000000 cycles:   16805189 heartbeat IPC: 1.66196 cumulative IPC: 1.66615 (Simulation time: 0 hr 2 min 37 sec) 
Heartbeat CPU  1 instructions:   26000000 cycles:   16851106 heartbeat IPC: 1.54313 cumulative IPC: 1.54293 (Simulation time: 0 hr 2 min 38 sec) 
Heartbeat CPU  2 instructions:   26000002 cycles:   16864665 heartbeat IPC: 1.54293 cumulative IPC: 1.54169 (Simulation time: 0 hr 2 min 38 sec) 
Heartbeat CPU  0 instructions:   32000000 cycles:   17220886 heartbeat IPC: 2.07235 cumulative IPC: 1.85821 (Simulation time: 0 hr 2 min 41 sec) 
Heartbeat CPU  3 instructions:   29000002 cycles:   17406884 heartbeat IPC: 1.66197 cumulative IPC: 1.66601 (Simulation time: 0 hr 2 min 43 sec) 
Heartbeat CPU  1 instructions:   27000000 cycles:   17499136 heartbeat IPC: 1.54314 cumulative IPC: 1.54293 (Simulation time: 0 hr 2 min 44 sec) 
Heartbeat CPU  2 instructions:   27000000 cycles:   17512779 heartbeat IPC: 1.54294 cumulative IPC: 1.54173 (Simulation time: 0 hr 2 min 44 sec) 
Heartbeat CPU  0 instructions:   33000002 cycles:   17705165 heartbeat IPC: 2.06493 cumulative IPC: 1.86386 (Simulation time: 0 hr 2 min 46 sec) 
Heartbeat CPU  3 instructions:   30000002 cycles:   18008581 heartbeat IPC: 1.66197 cumulative IPC: 1.66587 (Simulation time: 0 hr 2 min 49 sec) 
Heartbeat CPU  1 instructions:   28000000 cycles:   18147183 heartbeat IPC: 1.54310 cumulative IPC: 1.54294 (Simulation time: 0 hr 2 min 50 sec) 
Heartbeat CPU  2 instructions:   28000000 cycles:   18160893 heartbeat IPC: 1.54294 cumulative IPC: 1.54177 (Simulation time: 0 hr 2 min 50 sec) 
Heartbeat CPU  0 instructions:   34000002 cycles:   18182251 heartbeat IPC: 2.09606 cumulative IPC: 1.86996 (Simulation time: 0 hr 2 min 51 sec) 
Heartbeat CPU  3 instructions:   31000002 cycles:   18610274 heartbeat IPC: 1.66198 cumulative IPC: 1.66575 (Simulation time: 0 hr 2 min 55 sec) 
Heartbeat CPU  0 instructions:   35000002 cycles:   18660385 heartbeat IPC: 2.09146 cumulative IPC: 1.87563 (Simulation time: 0 hr 2 min 55 sec) 
Heartbeat CPU  1 instructions:   29000000 cycles:   18795171 heartbeat IPC: 1.54324 cumulative IPC: 1.54295 (Simulation time: 0 hr 2 min 57 sec) 
Heartbeat CPU  2 instructions:   29000001 cycles:   18809012 heartbeat IPC: 1.54293 cumulative IPC: 1.54181 (Simulation time: 0 hr 2 min 57 sec) 
Heartbeat CPU  0 instructions:   36000000 cycles:   19133817 heartbeat IPC: 2.11223 cumulative IPC: 1.88149 (Simulation time: 0 hr 3 min 0 sec) 
Heartbeat CPU  3 instructions:   32000000 cycles:   19211970 heartbeat IPC: 1.66197 cumulative IPC: 1.66563 (Simulation time: 0 hr 3 min 1 sec) 
Heartbeat CPU  1 instructions:   30000003 cycles:   19443199 heartbeat IPC: 1.54315 cumulative IPC: 1.54296 (Simulation time: 0 hr 3 min 3 sec) 
Heartbeat CPU  2 instructions:   30000001 cycles:   19457132 heartbeat IPC: 1.54292 cumulative IPC: 1.54185 (Simulation time: 0 hr 3 min 3 sec) 
Heartbeat CPU  0 instructions:   37000001 cycles:   19604106 heartbeat IPC: 2.12635 cumulative IPC: 1.88736 (Simulation time: 0 hr 3 min 4 sec) 
Heartbeat CPU  3 instructions:   33000002 cycles:   19818935 heartbeat IPC: 1.64754 cumulative IPC: 1.66507 (Simulation time: 0 hr 3 min 6 sec) 
Heartbeat CPU  0 instructions:   38000000 cycles:   20076156 heartbeat IPC: 2.11842 cumulative IPC: 1.89279 (Simulation time: 0 hr 3 min 9 sec) 
Heartbeat CPU  1 instructions:   31000001 cycles:   20091217 heartbeat IPC: 1.54316 cumulative IPC: 1.54296 (Simulation time: 0 hr 3 min 9 sec) 
Heartbeat CPU  2 instructions:   31000000 cycles:   20105246 heartbeat IPC: 1.54294 cumulative IPC: 1.54189 (Simulation time: 0 hr 3 min 9 sec) 
Heartbeat CPU  3 instructions:   34000002 cycles:   20417963 heartbeat IPC: 1.66937 cumulative IPC: 1.66520 (Simulation time: 0 hr 3 min 12 sec) 
Heartbeat CPU  0 instructions:   39000002 cycles:   20621745 heartbeat IPC: 1.83289 cumulative IPC: 1.89121 (Simulation time: 0 hr 3 min 14 sec) 
Heartbeat CPU  1 instructions:   32000000 cycles:   20739261 heartbeat IPC: 1.54310 cumulative IPC: 1.54297 (Simulation time: 0 hr 3 min 15 sec) 
Heartbeat CPU  2 instructions:   32000000 cycles:   20753366 heartbeat IPC: 1.54292 cumulative IPC: 1.54192 (Simulation time: 0 hr 3 min 15 sec) 
Heartbeat CPU  3 instructions:   35000002 cycles:   21016981 heartbeat IPC: 1.66940 cumulative IPC: 1.66532 (Simulation time: 0 hr 3 min 17 sec) 
Heartbeat CPU  0 instructions:   40000000 cycles:   21201382 heartbeat IPC: 1.72521 cumulative IPC: 1.88667 (Simulation time: 0 hr 3 min 19 sec) 
Heartbeat CPU  1 instructions:   33000000 cycles:   21399239 heartbeat IPC: 1.51520 cumulative IPC: 1.54211 (Simulation time: 0 hr 3 min 21 sec) 
Heartbeat CPU  2 instructions:   33000000 cycles:   21401998 heartbeat IPC: 1.54171 cumulative IPC: 1.54191 (Simulation time: 0 hr 3 min 21 sec) 
Heartbeat CPU  3 instructions:   36000000 cycles:   21616012 heartbeat IPC: 1.66936 cumulative IPC: 1.66543 (Simulation time: 0 hr 3 min 23 sec) 
Heartbeat CPU  0 instructions:   41000001 cycles:   21717610 heartbeat IPC: 1.93713 cumulative IPC: 1.88787 (Simulation time: 0 hr 3 min 24 sec) 
Heartbeat CPU  1 instructions:   34000000 cycles:   22047314 heartbeat IPC: 1.54303 cumulative IPC: 1.54214 (Simulation time: 0 hr 3 min 27 sec) 
Heartbeat CPU  2 instructions:   34000000 cycles:   22049858 heartbeat IPC: 1.54354 cumulative IPC: 1.54196 (Simulation time: 0 hr 3 min 27 sec) 
Heartbeat CPU  3 instructions:   37000002 cycles:   22215031 heartbeat IPC: 1.66940 cumulative IPC: 1.66554 (Simulation time: 0 hr 3 min 28 sec) 
Heartbeat CPU  0 instructions:   42000000 cycles:   22370689 heartbeat IPC: 1.53121 cumulative IPC: 1.87746 (Simulation time: 0 hr 3 min 30 sec) 
Heartbeat CPU  1 instructions:   35000000 cycles:   22695394 heartbeat IPC: 1.54302 cumulative IPC: 1.54216 (Simulation time: 0 hr 3 min 32 sec) 
Heartbeat CPU  2 instructions:   35000000 cycles:   22697720 heartbeat IPC: 1.54354 cumulative IPC: 1.54201 (Simulation time: 0 hr 3 min 32 sec) 
Heartbeat CPU  3 instructions:   38000002 cycles:   22814059 heartbeat IPC: 1.66937 cumulative IPC: 1.66564 (Simulation time: 0 hr 3 min 33 sec) 
Heartbeat CPU  0 instructions:   43000002 cycles:   23049952 heartbeat IPC: 1.47219 cumulative IPC: 1.86551 (Simulation time: 0 hr 3 min 36 sec) 
Heartbeat CPU  1 instructions:   36000000 cycles:   23343453 heartbeat IPC: 1.54307 cumulative IPC: 1.54219 (Simulation time: 0 hr 3 min 38 sec) 
Heartbeat CPU  2 instructions:   36000000 cycles:   23345586 heartbeat IPC: 1.54353 cumulative IPC: 1.54205 (Simulation time: 0 hr 3 min 39 sec) 
Heartbeat CPU  3 instructions:   39000002 cycles:   23413080 heartbeat IPC: 1.66939 cumulative IPC: 1.66574 (Simulation time: 0 hr 3 min 39 sec) 
Heartbeat CPU  0 instructions:   44000000 cycles:   23525306 heartbeat IPC: 2.10369 cumulative IPC: 1.87033 (Simulation time: 0 hr 3 min 40 sec) 
Heartbeat CPU  1 instructions:   37000000 cycles:   23991520 heartbeat IPC: 1.54305 cumulative IPC: 1.54221 (Simulation time: 0 hr 3 min 45 sec) 
Heartbeat CPU  0 instructions:   45000001 cycles:   23993105 heartbeat IPC: 2.13767 cumulative IPC: 1.87554 (Simulation time: 0 hr 3 min 45 sec) 
Heartbeat CPU  2 instructions:   37000000 cycles:   23993439 heartbeat IPC: 1.54356 cumulative IPC: 1.54209 (Simulation time: 0 hr 3 min 45 sec) 
Heartbeat CPU  3 instructions:   40000000 cycles:   24012109 heartbeat IPC: 1.66936 cumulative IPC: 1.66583 (Simulation time: 0 hr 3 min 45 sec) 
Heartbeat CPU  0 instructions:   46000001 cycles:   24463970 heartbeat IPC: 2.12375 cumulative IPC: 1.88032 (Simulation time: 0 hr 3 min 50 sec) 
Heartbeat CPU  3 instructions:   41000002 cycles:   24611130 heartbeat IPC: 1.66939 cumulative IPC: 1.66591 (Simulation time: 0 hr 3 min 51 sec) 
Heartbeat CPU  1 instructions:   38000001 cycles:   24639583 heartbeat IPC: 1.54306 cumulative IPC: 1.54223 (Simulation time: 0 hr 3 min 51 sec) 
Heartbeat CPU  2 instructions:   38000002 cycles:   24641305 heartbeat IPC: 1.54353 cumulative IPC: 1.54213 (Simulation time: 0 hr 3 min 51 sec) 
Heartbeat CPU  0 instructions:   47000000 cycles:   25060241 heartbeat IPC: 1.67709 cumulative IPC: 1.87548 (Simulation time: 0 hr 3 min 55 sec) 
Heartbeat CPU  3 instructions:   42000002 cycles:   25210156 heartbeat IPC: 1.66938 cumulative IPC: 1.66600 (Simulation time: 0 hr 3 min 57 sec) 
Heartbeat CPU  1 instructions:   39000001 cycles:   25287636 heartbeat IPC: 1.54308 cumulative IPC: 1.54226 (Simulation time: 0 hr 3 min 57 sec) 
Heartbeat CPU  2 instructions:   39000000 cycles:   25289168 heartbeat IPC: 1.54353 cumulative IPC: 1.54216 (Simulation time: 0 hr 3 min 57 sec) 
Heartbeat CPU  0 instructions:   48000000 cycles:   25551877 heartbeat IPC: 2.03403 cumulative IPC: 1.87853 (Simulation time: 0 hr 4 min 0 sec) 
Heartbeat CPU  3 instructions:   43000002 cycles:   25809178 heartbeat IPC: 1.66939 cumulative IPC: 1.66607 (Simulation time: 0 hr 4 min 2 sec) 
Heartbeat CPU  1 instructions:   40000000 cycles:   25935709 heartbeat IPC: 1.54303 cumulative IPC: 1.54228 (Simulation time: 0 hr 4 min 4 sec) 
Heartbeat CPU  2 instructions:   40000000 cycles:   25937031 heartbeat IPC: 1.54354 cumulative IPC: 1.54220 (Simulation time: 0 hr 4 min 4 sec) 
Heartbeat CPU  0 instructions:   49000003 cycles:   26036567 heartbeat IPC: 2.06318 cumulative IPC: 1.88197 (Simulation time: 0 hr 4 min 5 sec) 
Heartbeat CPU  3 instructions:   44000000 cycles:   26408203 heartbeat IPC: 1.66938 cumulative IPC: 1.66615 (Simulation time: 0 hr 4 min 8 sec) 
Heartbeat CPU  0 instructions:   50000002 cycles:   26527587 heartbeat IPC: 2.03657 cumulative IPC: 1.88483 (Simulation time: 0 hr 4 min 9 sec) 
Heartbeat CPU  1 instructions:   41000002 cycles:   26583796 heartbeat IPC: 1.54301 cumulative IPC: 1.54229 (Simulation time: 0 hr 4 min 10 sec) 
Heartbeat CPU  2 instructions:   41000001 cycles:   26584887 heartbeat IPC: 1.54355 cumulative IPC: 1.54223 (Simulation time: 0 hr 4 min 10 sec) 
Heartbeat CPU  3 instructions:   45000002 cycles:   27007224 heartbeat IPC: 1.66939 cumulative IPC: 1.66622 (Simulation time: 0 hr 4 min 14 sec) 
Heartbeat CPU  0 instructions:   51000003 cycles:   27033962 heartbeat IPC: 1.97482 cumulative IPC: 0.03699 (Simulation time: 0 hr 4 min 14 sec) 
Heartbeat CPU  1 instructions:   42000002 cycles:   27231873 heartbeat IPC: 1.54303 cumulative IPC: 1.54231 (Simulation time: 0 hr 4 min 16 sec) 
Heartbeat CPU  2 instructions:   42000000 cycles:   27232752 heartbeat IPC: 1.54353 cumulative IPC: 1.54226 (Simulation time: 0 hr 4 min 16 sec) 
Heartbeat CPU  0 instructions:   52000000 cycles:   27536569 heartbeat IPC: 1.98962 cumulative IPC: 0.07263 (Simulation time: 0 hr 4 min 19 sec) 
Heartbeat CPU  3 instructions:   46000002 cycles:   27606252 heartbeat IPC: 1.66937 cumulative IPC: 1.66629 (Simulation time: 0 hr 4 min 20 sec) 
Heartbeat CPU  1 instructions:   43000001 cycles:   27879926 heartbeat IPC: 1.54308 cumulative IPC: 1.54233 (Simulation time: 0 hr 4 min 22 sec) 
Heartbeat CPU  2 instructions:   43000000 cycles:   27880616 heartbeat IPC: 1.54353 cumulative IPC: 1.54229 (Simulation time: 0 hr 4 min 22 sec) 
Heartbeat CPU  0 instructions:   53000000 cycles:   28044463 heartbeat IPC: 1.96891 cumulative IPC: 0.10697 (Simulation time: 0 hr 4 min 24 sec) 
Heartbeat CPU  3 instructions:   47000002 cycles:   28205274 heartbeat IPC: 1.66939 cumulative IPC: 1.66636 (Simulation time: 0 hr 4 min 26 sec) 
Heartbeat CPU  1 instructions:   44000000 cycles:   28527800 heartbeat IPC: 1.54351 cumulative IPC: 1.54236 (Simulation time: 0 hr 4 min 29 sec) 
Heartbeat CPU  2 instructions:   44000000 cycles:   28528474 heartbeat IPC: 1.54355 cumulative IPC: 1.54232 (Simulation time: 0 hr 4 min 29 sec) 
Heartbeat CPU  0 instructions:   54000001 cycles:   28531802 heartbeat IPC: 2.05196 cumulative IPC: 0.14019 (Simulation time: 0 hr 4 min 29 sec) 
Heartbeat CPU  3 instructions:   48000000 cycles:   28804300 heartbeat IPC: 1.66937 cumulative IPC: 1.66642 (Simulation time: 0 hr 4 min 31 sec) 
Heartbeat CPU  0 instructions:   55000000 cycles:   29019009 heartbeat IPC: 2.05251 cumulative IPC: 0.17230 (Simulation time: 0 hr 4 min 33 sec) 
Heartbeat CPU  1 instructions:   45000000 cycles:   29175658 heartbeat IPC: 1.54355 cumulative IPC: 1.54238 (Simulation time: 0 hr 4 min 35 sec) 
Heartbeat CPU  2 instructions:   45000001 cycles:   29176334 heartbeat IPC: 1.54354 cumulative IPC: 1.54235 (Simulation time: 0 hr 4 min 35 sec) 
Heartbeat CPU  3 instructions:   49000002 cycles:   29403322 heartbeat IPC: 1.66939 cumulative IPC: 1.66648 (Simulation time: 0 hr 4 min 37 sec) 
Heartbeat CPU  0 instructions:   56000000 cycles:   29601839 heartbeat IPC: 1.71577 cumulative IPC: 0.20269 (Simulation time: 0 hr 4 min 39 sec) 
Heartbeat CPU  1 instructions:   46000001 cycles:   29823623 heartbeat IPC: 1.54329 cumulative IPC: 1.54240 (Simulation time: 0 hr 4 min 41 sec) 
Heartbeat CPU  2 instructions:   46000001 cycles:   29824196 heartbeat IPC: 1.54354 cumulative IPC: 1.54237 (Simulation time: 0 hr 4 min 41 sec) 
Heartbeat CPU  3 instructions:   50000002 cycles:   30002347 heartbeat IPC: 1.66938 cumulative IPC: 1.66654 (Simulation time: 0 hr 4 min 43 sec) 
Heartbeat CPU  0 instructions:   57000000 cycles:   30116395 heartbeat IPC: 1.94342 cumulative IPC: 0.23243 (Simulation time: 0 hr 4 min 44 sec) 
Heartbeat CPU  1 instructions:   47000002 cycles:   30471814 heartbeat IPC: 1.54276 cumulative IPC: 1.54241 (Simulation time: 0 hr 4 min 47 sec) 
Heartbeat CPU  2 instructions:   47000001 cycles:   30472057 heartbeat IPC: 1.54354 cumulative IPC: 1.54240 (Simulation time: 0 hr 4 min 47 sec) 
Heartbeat CPU  3 instructions:   51000002 cycles:   30601369 heartbeat IPC: 1.66939 cumulative IPC: 0.03268 (Simulation time: 0 hr 4 min 48 sec) 
Heartbeat CPU  0 instructions:   58000003 cycles:   30693237 heartbeat IPC: 1.73358 cumulative IPC: 0.26064 (Simulation time: 0 hr 4 min 49 sec) 
Heartbeat CPU  2 instructions:   48000000 cycles:   31119916 heartbeat IPC: 1.54354 cumulative IPC: 1.54242 (Simulation time: 0 hr 4 min 53 sec) 
Heartbeat CPU  1 instructions:   48000000 cycles:   31119929 heartbeat IPC: 1.54293 cumulative IPC: 1.54242 (Simulation time: 0 hr 4 min 53 sec) 
Heartbeat CPU  3 instructions:   52000000 cycles:   31200396 heartbeat IPC: 1.66937 cumulative IPC: 0.06410 (Simulation time: 0 hr 4 min 54 sec) 
Heartbeat CPU  0 instructions:   59000003 cycles:   31338471 heartbeat IPC: 1.54983 cumulative IPC: 0.28719 (Simulation time: 0 hr 4 min 55 sec) 
Heartbeat CPU  2 instructions:   49000002 cycles:   31767781 heartbeat IPC: 1.54353 cumulative IPC: 1.54244 (Simulation time: 0 hr 4 min 58 sec) 
Heartbeat CPU  1 instructions:   49000000 cycles:   31768043 heartbeat IPC: 1.54294 cumulative IPC: 1.54243 (Simulation time: 0 hr 4 min 58 sec) 
Heartbeat CPU  3 instructions:   53000003 cycles:   31800827 heartbeat IPC: 1.66548 cumulative IPC: 0.09434 (Simulation time: 0 hr 4 min 59 sec) 
Heartbeat CPU  0 instructions:   60000000 cycles:   32028944 heartbeat IPC: 1.44828 cumulative IPC: 0.31222 (Simulation time: 0 hr 5 min 1 sec) 
Heartbeat CPU  3 instructions:   54000003 cycles:   32404486 heartbeat IPC: 1.65656 cumulative IPC: 0.12344 (Simulation time: 0 hr 5 min 4 sec) 
Heartbeat CPU  2 instructions:   50000002 cycles:   32415642 heartbeat IPC: 1.54354 cumulative IPC: 1.54247 (Simulation time: 0 hr 5 min 4 sec) 
Heartbeat CPU  1 instructions:   50000001 cycles:   32416148 heartbeat IPC: 1.54296 cumulative IPC: 1.54244 (Simulation time: 0 hr 5 min 4 sec) 

Warmup complete CPU  0 instructions:   60597440 cycles:   32416147 (Simulation time: 0 hr 5 min 4 sec) 
Warmup complete CPU  1 instructions:   50000001 cycles:   32416148 (Simulation time: 0 hr 5 min 4 sec) 
Warmup complete CPU  2 instructions:   50000788 cycles:   32416147 (Simulation time: 0 hr 5 min 4 sec) 
Warmup complete CPU  3 instructions:   54019325 cycles:   32416147 (Simulation time: 0 hr 5 min 4 sec) 

Heartbeat CPU  0 instructions:   61000000 cycles:   32881170 heartbeat IPC: 1.17340 cumulative IPC: 0.86568 (Simulation time: 0 hr 5 min 9 sec) 
Heartbeat CPU  1 instructions:   51000001 cycles:   33068538 heartbeat IPC: 1.53283 cumulative IPC: 1.53283 (Simulation time: 0 hr 5 min 11 sec) 
Heartbeat CPU  2 instructions:   51000001 cycles:   33073717 heartbeat IPC: 1.51958 cumulative IPC: 1.51955 (Simulation time: 0 hr 5 min 11 sec) 
Heartbeat CPU  3 instructions:   55000001 cycles:   33100195 heartbeat IPC: 1.43738 cumulative IPC: 1.43364 (Simulation time: 0 hr 5 min 11 sec) 
Heartbeat CPU  1 instructions:   52000000 cycles:   33721043 heartbeat IPC: 1.53255 cumulative IPC: 1.53269 (Simulation time: 0 hr 5 min 18 sec) 
Heartbeat CPU  2 instructions:   52000000 cycles:   33731747 heartbeat IPC: 1.51969 cumulative IPC: 1.51962 (Simulation time: 0 hr 5 min 18 sec) 
Heartbeat CPU  0 instructions:   62000001 cycles:   33776021 heartbeat IPC: 1.11751 cumulative IPC: 1.03139 (Simulation time: 0 hr 5 min 18 sec) 
Heartbeat CPU  3 instructions:   56000000 cycles:   33797655 heartbeat IPC: 1.43377 cumulative IPC: 1.43371 (Simulation time: 0 hr 5 min 19 sec) 
Heartbeat CPU  2 instructions:   53000002 cycles:   34395666 heartbeat IPC: 1.50621 cumulative IPC: 1.51512 (Simulation time: 0 hr 5 min 25 sec) 
Heartbeat CPU  3 instructions:   57000003 cycles:   34495170 heartbeat IPC: 1.43367 cumulative IPC: 1.43369 (Simulation time: 0 hr 5 min 26 sec) 
Heartbeat CPU  1 instructions:   53000003 cycles:   34622843 heartbeat IPC: 1.10890 cumulative IPC: 1.35950 (Simulation time: 0 hr 5 min 27 sec) 
Heartbeat CPU  0 instructions:   63000002 cycles:   34867596 heartbeat IPC: 0.91611 cumulative IPC: 0.98006 (Simulation time: 0 hr 5 min 30 sec) 
Heartbeat CPU  2 instructions:   54000001 cycles:   35048173 heartbeat IPC: 1.53255 cumulative IPC: 1.51944 (Simulation time: 0 hr 5 min 31 sec) 
Heartbeat CPU  3 instructions:   58000001 cycles:   35192662 heartbeat IPC: 1.43371 cumulative IPC: 1.43370 (Simulation time: 0 hr 5 min 33 sec) 
Heartbeat CPU  1 instructions:   54000001 cycles:   35275225 heartbeat IPC: 1.53284 cumulative IPC: 1.39905 (Simulation time: 0 hr 5 min 34 sec) 
Heartbeat CPU  2 instructions:   55000000 cycles:   35700670 heartbeat IPC: 1.53257 cumulative IPC: 1.52205 (Simulation time: 0 hr 5 min 39 sec) 
Heartbeat CPU  3 instructions:   59000001 cycles:   35890135 heartbeat IPC: 1.43375 cumulative IPC: 1.43371 (Simulation time: 0 hr 5 min 41 sec) 
Heartbeat CPU  1 instructions:   55000001 cycles:   35927830 heartbeat IPC: 1.53232 cumulative IPC: 1.42382 (Simulation time: 0 hr 5 min 41 sec) 
Heartbeat CPU  0 instructions:   64000000 cycles:   35992646 heartbeat IPC: 0.88885 cumulative IPC: 0.95137 (Simulation time: 0 hr 5 min 42 sec) 
Heartbeat CPU  2 instructions:   56000000 cycles:   36353119 heartbeat IPC: 1.53269 cumulative IPC: 1.52381 (Simulation time: 0 hr 5 min 45 sec) 
Heartbeat CPU  1 instructions:   56000000 cycles:   36579976 heartbeat IPC: 1.53340 cumulative IPC: 1.44098 (Simulation time: 0 hr 5 min 48 sec) 
Heartbeat CPU  3 instructions:   60000000 cycles:   36587636 heartbeat IPC: 1.43369 cumulative IPC: 1.43370 (Simulation time: 0 hr 5 min 48 sec) 
Heartbeat CPU  2 instructions:   57000000 cycles:   37005636 heartbeat IPC: 1.53253 cumulative IPC: 1.52505 (Simulation time: 0 hr 5 min 52 sec) 
Heartbeat CPU  1 instructions:   57000001 cycles:   37231976 heartbeat IPC: 1.53374 cumulative IPC: 1.45354 (Simulation time: 0 hr 5 min 54 sec) 
Heartbeat CPU  3 instructions:   61000003 cycles:   37289023 heartbeat IPC: 1.42575 cumulative IPC: 1.43256 (Simulation time: 0 hr 5 min 55 sec) 
Heartbeat CPU  0 instructions:   65000002 cycles:   37469376 heartbeat IPC: 0.67717 cumulative IPC: 0.87124 (Simulation time: 0 hr 5 min 56 sec) 
Heartbeat CPU  2 instructions:   58000003 cycles:   37658172 heartbeat IPC: 1.53249 cumulative IPC: 1.52598 (Simulation time: 0 hr 5 min 58 sec) 
Heartbeat CPU  1 instructions:   58000001 cycles:   37884396 heartbeat IPC: 1.53276 cumulative IPC: 1.46299 (Simulation time: 0 hr 6 min 0 sec) 
Heartbeat CPU  3 instructions:   62000003 cycles:   37990161 heartbeat IPC: 1.42625 cumulative IPC: 1.43176 (Simulation time: 0 hr 6 min 1 sec) 
Heartbeat CPU  2 instructions:   59000001 cycles:   38310656 heartbeat IPC: 1.53260 cumulative IPC: 1.52671 (Simulation time: 0 hr 6 min 4 sec) 
Heartbeat CPU  1 instructions:   59000003 cycles:   38535546 heartbeat IPC: 1.53575 cumulative IPC: 1.47073 (Simulation time: 0 hr 6 min 6 sec) 
Heartbeat CPU  3 instructions:   63000003 cycles:   38691229 heartbeat IPC: 1.42640 cumulative IPC: 1.43117 (Simulation time: 0 hr 6 min 8 sec) 
Heartbeat CPU  2 instructions:   60000000 cycles:   38963113 heartbeat IPC: 1.53267 cumulative IPC: 1.52730 (Simulation time: 0 hr 6 min 10 sec) 
Heartbeat CPU  1 instructions:   60000000 cycles:   39186464 heartbeat IPC: 1.53629 cumulative IPC: 1.47704 (Simulation time: 0 hr 6 min 12 sec) 
Heartbeat CPU  3 instructions:   64000000 cycles:   39392353 heartbeat IPC: 1.42628 cumulative IPC: 1.43067 (Simulation time: 0 hr 6 min 14 sec) 
Heartbeat CPU  2 instructions:   61000000 cycles:   39613761 heartbeat IPC: 1.53693 cumulative IPC: 1.52817 (Simulation time: 0 hr 6 min 16 sec) 
Heartbeat CPU  0 instructions:   66000000 cycles:   39620259 heartbeat IPC: 0.46492 cumulative IPC: 0.74993 (Simulation time: 0 hr 6 min 16 sec) 
Heartbeat CPU  1 instructions:   61000001 cycles:   39907855 heartbeat IPC: 1.38621 cumulative IPC: 1.46829 (Simulation time: 0 hr 6 min 19 sec) 
Heartbeat CPU  3 instructions:   65000003 cycles:   40093495 heartbeat IPC: 1.42625 cumulative IPC: 1.43027 (Simulation time: 0 hr 6 min 21 sec) 
Heartbeat CPU  2 instructions:   62000001 cycles:   40263814 heartbeat IPC: 1.53834 cumulative IPC: 1.52902 (Simulation time: 0 hr 6 min 23 sec) 
Heartbeat CPU  1 instructions:   62000001 cycles:   40563612 heartbeat IPC: 1.52496 cumulative IPC: 1.47285 (Simulation time: 0 hr 6 min 26 sec) 
Heartbeat CPU  3 instructions:   66000003 cycles:   40794517 heartbeat IPC: 1.42649 cumulative IPC: 1.42995 (Simulation time: 0 hr 6 min 28 sec) 
Heartbeat CPU  2 instructions:   63000003 cycles:   40913812 heartbeat IPC: 1.53847 cumulative IPC: 1.52974 (Simulation time: 0 hr 6 min 29 sec) 
Heartbeat CPU  0 instructions:   67000002 cycles:   41094618 heartbeat IPC: 0.67826 cumulative IPC: 0.73775 (Simulation time: 0 hr 6 min 31 sec) 
Heartbeat CPU  1 instructions:   63000003 cycles:   41217361 heartbeat IPC: 1.52964 cumulative IPC: 1.47707 (Simulation time: 0 hr 6 min 33 sec) 
Heartbeat CPU  3 instructions:   67000003 cycles:   41495673 heartbeat IPC: 1.42622 cumulative IPC: 1.42966 (Simulation time: 0 hr 6 min 36 sec) 
Heartbeat CPU  2 instructions:   64000000 cycles:   41563820 heartbeat IPC: 1.53844 cumulative IPC: 1.53036 (Simulation time: 0 hr 6 min 36 sec) 
Heartbeat CPU  1 instructions:   64000000 cycles:   41870627 heartbeat IPC: 1.53077 cumulative IPC: 1.48078 (Simulation time: 0 hr 6 min 39 sec) 
Heartbeat CPU  3 instructions:   68000000 cycles:   42196793 heartbeat IPC: 1.42629 cumulative IPC: 1.42942 (Simulation time: 0 hr 6 min 42 sec) 
Heartbeat CPU  2 instructions:   65000001 cycles:   42213840 heartbeat IPC: 1.53842 cumulative IPC: 1.53089 (Simulation time: 0 hr 6 min 43 sec) 
Heartbeat CPU  1 instructions:   65000003 cycles:   42525715 heartbeat IPC: 1.52652 cumulative IPC: 1.48374 (Simulation time: 0 hr 6 min 46 sec) 
Heartbeat CPU  0 instructions:   68000000 cycles:   42719390 heartbeat IPC: 0.61547 cumulative IPC: 0.71847 (Simulation time: 0 hr 6 min 47 sec) 
Heartbeat CPU  2 instructions:   66000003 cycles:   42863863 heartbeat IPC: 1.53841 cumulative IPC: 1.53136 (Simulation time: 0 hr 6 min 49 sec) 
Heartbeat CPU  3 instructions:   69000003 cycles:   42897953 heartbeat IPC: 1.42621 cumulative IPC: 1.42921 (Simulation time: 0 hr 6 min 49 sec) 
Heartbeat CPU  1 instructions:   66000003 cycles:   43181916 heartbeat IPC: 1.52392 cumulative IPC: 1.48619 (Simulation time: 0 hr 6 min 52 sec) 
Heartbeat CPU  2 instructions:   67000003 cycles:   43513851 heartbeat IPC: 1.53849 cumulative IPC: 1.53178 (Simulation time: 0 hr 6 min 55 sec) 
Heartbeat CPU  3 instructions:   70000003 cycles:   43599021 heartbeat IPC: 1.42640 cumulative IPC: 1.42903 (Simulation time: 0 hr 6 min 56 sec) 
Heartbeat CPU  1 instructions:   67000001 cycles:   43837238 heartbeat IPC: 1.52596 cumulative IPC: 1.48847 (Simulation time: 0 hr 6 min 58 sec) 
Heartbeat CPU  2 instructions:   68000000 cycles:   44163856 heartbeat IPC: 1.53845 cumulative IPC: 1.53215 (Simulation time: 0 hr 7 min 1 sec) 
Heartbeat CPU  3 instructions:   71000003 cycles:   44300154 heartbeat IPC: 1.42626 cumulative IPC: 1.42887 (Simulation time: 0 hr 7 min 2 sec) 
Heartbeat CPU  1 instructions:   68000000 cycles:   44493793 heartbeat IPC: 1.52310 cumulative IPC: 1.49036 (Simulation time: 0 hr 7 min 4 sec) 
Heartbeat CPU  2 instructions:   69000003 cycles:   44813919 heartbeat IPC: 1.53832 cumulative IPC: 1.53247 (Simulation time: 0 hr 7 min 7 sec) 
Heartbeat CPU  0 instructions:   69000000 cycles:   44968956 heartbeat IPC: 0.44453 cumulative IPC: 0.66938 (Simulation time: 0 hr 7 min 9 sec) 
Heartbeat CPU  3 instructions:   72000000 cycles:   45001203 heartbeat IPC: 1.42643 cumulative IPC: 1.42873 (Simulation time: 0 hr 7 min 9 sec) 
Heartbeat CPU  1 instructions:   69000000 cycles:   45148686 heartbeat IPC: 1.52697 cumulative IPC: 1.49224 (Simulation time: 0 hr 7 min 10 sec) 
Heartbeat CPU  2 instructions:   70000001 cycles:   45463927 heartbeat IPC: 1.53844 cumulative IPC: 1.53277 (Simulation time: 0 hr 7 min 14 sec) 
Heartbeat CPU  3 instructions:   73000001 cycles:   45717422 heartbeat IPC: 1.39622 cumulative IPC: 1.42698 (Simulation time: 0 hr 7 min 16 sec) 
Heartbeat CPU  1 instructions:   70000001 cycles:   45800081 heartbeat IPC: 1.53517 cumulative IPC: 1.49433 (Simulation time: 0 hr 7 min 17 sec) 
Heartbeat CPU  2 instructions:   71000001 cycles:   46113936 heartbeat IPC: 1.53844 cumulative IPC: 1.53304 (Simulation time: 0 hr 7 min 20 sec) 
Heartbeat CPU  0 instructions:   70000003 cycles:   46160859 heartbeat IPC: 0.83900 cumulative IPC: 0.68409 (Simulation time: 0 hr 7 min 21 sec) 
Heartbeat CPU  3 instructions:   74000001 cycles:   46410019 heartbeat IPC: 1.44384 cumulative IPC: 1.42782 (Simulation time: 0 hr 7 min 23 sec) 
Heartbeat CPU  1 instructions:   71000000 cycles:   46459027 heartbeat IPC: 1.51757 cumulative IPC: 1.49542 (Simulation time: 0 hr 7 min 24 sec) 
Heartbeat CPU  2 instructions:   72000000 cycles:   46763934 heartbeat IPC: 1.53846 cumulative IPC: 1.53328 (Simulation time: 0 hr 7 min 27 sec) 
Heartbeat CPU  3 instructions:   75000001 cycles:   47102606 heartbeat IPC: 1.44386 cumulative IPC: 1.42857 (Simulation time: 0 hr 7 min 30 sec) 
Heartbeat CPU  1 instructions:   72000000 cycles:   47120595 heartbeat IPC: 1.51156 cumulative IPC: 1.49615 (Simulation time: 0 hr 7 min 30 sec) 
Heartbeat CPU  2 instructions:   73000001 cycles:   47420769 heartbeat IPC: 1.52245 cumulative IPC: 1.53281 (Simulation time: 0 hr 7 min 33 sec) 
Heartbeat CPU  0 instructions:   71000000 cycles:   47687222 heartbeat IPC: 0.65515 cumulative IPC: 0.68119 (Simulation time: 0 hr 7 min 36 sec) 
Heartbeat CPU  3 instructions:   76000000 cycles:   47795204 heartbeat IPC: 1.44384 cumulative IPC: 1.42926 (Simulation time: 0 hr 7 min 37 sec) 
Heartbeat CPU  1 instructions:   73000001 cycles:   47808991 heartbeat IPC: 1.45265 cumulative IPC: 1.49420 (Simulation time: 0 hr 7 min 37 sec) 
Heartbeat CPU  2 instructions:   74000001 cycles:   48078049 heartbeat IPC: 1.52142 cumulative IPC: 1.53233 (Simulation time: 0 hr 7 min 39 sec) 
Heartbeat CPU  1 instructions:   74000003 cycles:   48471139 heartbeat IPC: 1.51024 cumulative IPC: 1.49486 (Simulation time: 0 hr 7 min 43 sec) 
Heartbeat CPU  3 instructions:   77000001 cycles:   48487863 heartbeat IPC: 1.44371 cumulative IPC: 1.42988 (Simulation time: 0 hr 7 min 43 sec) 
Heartbeat CPU  2 instructions:   75000003 cycles:   48735408 heartbeat IPC: 1.52124 cumulative IPC: 1.53188 (Simulation time: 0 hr 7 min 46 sec) 
Heartbeat CPU  1 instructions:   75000001 cycles:   49133569 heartbeat IPC: 1.50959 cumulative IPC: 1.49545 (Simulation time: 0 hr 7 min 49 sec) 
Heartbeat CPU  3 instructions:   78000001 cycles:   49180422 heartbeat IPC: 1.44392 cumulative IPC: 1.43046 (Simulation time: 0 hr 7 min 50 sec) 
Heartbeat CPU  2 instructions:   76000000 cycles:   49392686 heartbeat IPC: 1.52142 cumulative IPC: 1.53148 (Simulation time: 0 hr 7 min 52 sec) 
Heartbeat CPU  0 instructions:   72000000 cycles:   49534117 heartbeat IPC: 0.54145 cumulative IPC: 0.66612 (Simulation time: 0 hr 7 min 53 sec) 
Heartbeat CPU  1 instructions:   76000000 cycles:   49796931 heartbeat IPC: 1.50747 cumulative IPC: 1.49590 (Simulation time: 0 hr 7 min 56 sec) 
Heartbeat CPU  3 instructions:   79000001 cycles:   49873045 heartbeat IPC: 1.44379 cumulative IPC: 1.43099 (Simulation time: 0 hr 7 min 57 sec) 
Heartbeat CPU  2 instructions:   77000003 cycles:   50050090 heartbeat IPC: 1.52114 cumulative IPC: 1.53109 (Simulation time: 0 hr 7 min 58 sec) 
Heartbeat CPU  1 instructions:   77000003 cycles:   50459326 heartbeat IPC: 1.50968 cumulative IPC: 1.49641 (Simulation time: 0 hr 8 min 2 sec) 
Heartbeat CPU  3 instructions:   80000000 cycles:   50565594 heartbeat IPC: 1.44394 cumulative IPC: 1.43149 (Simulation time: 0 hr 8 min 3 sec) 
Heartbeat CPU  2 instructions:   78000003 cycles:   50707384 heartbeat IPC: 1.52139 cumulative IPC: 1.53074 (Simulation time: 0 hr 8 min 5 sec) 
Heartbeat CPU  1 instructions:   78000001 cycles:   51121786 heartbeat IPC: 1.50952 cumulative IPC: 1.49687 (Simulation time: 0 hr 8 min 9 sec) 
Heartbeat CPU  3 instructions:   81000001 cycles:   51258258 heartbeat IPC: 1.44370 cumulative IPC: 1.43193 (Simulation time: 0 hr 8 min 10 sec) 
Heartbeat CPU  0 instructions:   73000003 cycles:   51299525 heartbeat IPC: 0.56644 cumulative IPC: 0.65680 (Simulation time: 0 hr 8 min 10 sec) 
Heartbeat CPU  2 instructions:   79000001 cycles:   51364802 heartbeat IPC: 1.52110 cumulative IPC: 1.53041 (Simulation time: 0 hr 8 min 11 sec) 
Heartbeat CPU  1 instructions:   79000001 cycles:   51784383 heartbeat IPC: 1.50921 cumulative IPC: 1.49730 (Simulation time: 0 hr 8 min 15 sec) 
Heartbeat CPU  3 instructions:   82000001 cycles:   51950824 heartbeat IPC: 1.44391 cumulative IPC: 1.43236 (Simulation time: 0 hr 8 min 17 sec) 
Heartbeat CPU  2 instructions:   80000000 cycles:   52022093 heartbeat IPC: 1.52139 cumulative IPC: 1.53011 (Simulation time: 0 hr 8 min 17 sec) 
Heartbeat CPU  1 instructions:   80000000 cycles:   52445228 heartbeat IPC: 1.51321 cumulative IPC: 1.49782 (Simulation time: 0 hr 8 min 21 sec) 
Heartbeat CPU  3 instructions:   83000001 cycles:   52643460 heartbeat IPC: 1.44376 cumulative IPC: 1.43275 (Simulation time: 0 hr 8 min 23 sec) 
Heartbeat CPU  2 instructions:   81000000 cycles:   52679456 heartbeat IPC: 1.52123 cumulative IPC: 1.52982 (Simulation time: 0 hr 8 min 24 sec) 
Heartbeat CPU  1 instructions:   81000001 cycles:   53106982 heartbeat IPC: 1.51114 cumulative IPC: 1.49825 (Simulation time: 0 hr 8 min 28 sec) 
Heartbeat CPU  0 instructions:   74000000 cycles:   53119470 heartbeat IPC: 0.54947 cumulative IPC: 0.64736 (Simulation time: 0 hr 8 min 28 sec) 
Heartbeat CPU  3 instructions:   84000000 cycles:   53336064 heartbeat IPC: 1.44383 cumulative IPC: 1.43312 (Simulation time: 0 hr 8 min 30 sec) 
Heartbeat CPU  2 instructions:   82000001 cycles:   53336827 heartbeat IPC: 1.52121 cumulative IPC: 1.52955 (Simulation time: 0 hr 8 min 30 sec) 
Heartbeat CPU  1 instructions:   82000003 cycles:   53769370 heartbeat IPC: 1.50969 cumulative IPC: 1.49860 (Simulation time: 0 hr 8 min 34 sec) 
Heartbeat CPU  2 instructions:   83000000 cycles:   53994065 heartbeat IPC: 1.52152 cumulative IPC: 1.52930 (Simulation time: 0 hr 8 min 36 sec) 
Heartbeat CPU  3 instructions:   85000001 cycles:   54028648 heartbeat IPC: 1.44387 cumulative IPC: 1.43346 (Simulation time: 0 hr 8 min 37 sec) 
Heartbeat CPU  1 instructions:   83000003 cycles:   54431795 heartbeat IPC: 1.50960 cumulative IPC: 1.49893 (Simulation time: 0 hr 8 min 40 sec) 
Heartbeat CPU  2 instructions:   84000000 cycles:   54651444 heartbeat IPC: 1.52119 cumulative IPC: 1.52906 (Simulation time: 0 hr 8 min 42 sec) 
Heartbeat CPU  3 instructions:   86000001 cycles:   54721244 heartbeat IPC: 1.44384 cumulative IPC: 1.43378 (Simulation time: 0 hr 8 min 43 sec) 
Heartbeat CPU  0 instructions:   75000003 cycles:   55051794 heartbeat IPC: 0.51751 cumulative IPC: 0.63628 (Simulation time: 0 hr 8 min 46 sec) 
Heartbeat CPU  1 instructions:   84000000 cycles:   55094192 heartbeat IPC: 1.50966 cumulative IPC: 1.49925 (Simulation time: 0 hr 8 min 47 sec) 
Heartbeat CPU  2 instructions:   85000000 cycles:   55308707 heartbeat IPC: 1.52146 cumulative IPC: 1.52885 (Simulation time: 0 hr 8 min 49 sec) 
Heartbeat CPU  3 instructions:   87000001 cycles:   55413827 heartbeat IPC: 1.44387 cumulative IPC: 1.43409 (Simulation time: 0 hr 8 min 50 sec) 
Heartbeat CPU  1 instructions:   85000003 cycles:   55756440 heartbeat IPC: 1.51001 cumulative IPC: 1.49955 (Simulation time: 0 hr 8 min 53 sec) 
Heartbeat CPU  2 instructions:   86000003 cycles:   55966161 heartbeat IPC: 1.52102 cumulative IPC: 1.52863 (Simulation time: 0 hr 8 min 55 sec) 
Heartbeat CPU  3 instructions:   88000000 cycles:   56106467 heartbeat IPC: 1.44375 cumulative IPC: 1.43437 (Simulation time: 0 hr 8 min 56 sec) 
Heartbeat CPU  1 instructions:   86000003 cycles:   56417486 heartbeat IPC: 1.51275 cumulative IPC: 1.49992 (Simulation time: 0 hr 8 min 59 sec) 
Heartbeat CPU  2 instructions:   87000001 cycles:   56623410 heartbeat IPC: 1.52149 cumulative IPC: 1.52843 (Simulation time: 0 hr 9 min 1 sec) 
Heartbeat CPU  3 instructions:   89000001 cycles:   56799104 heartbeat IPC: 1.44376 cumulative IPC: 1.43464 (Simulation time: 0 hr 9 min 3 sec) 
Heartbeat CPU  0 instructions:   76000000 cycles:   56948544 heartbeat IPC: 0.52722 cumulative IPC: 0.62785 (Simulation time: 0 hr 9 min 4 sec) 
Heartbeat CPU  1 instructions:   87000001 cycles:   57079779 heartbeat IPC: 1.50990 cumulative IPC: 1.50018 (Simulation time: 0 hr 9 min 6 sec) 
Heartbeat CPU  2 instructions:   88000000 cycles:   57280811 heartbeat IPC: 1.52114 cumulative IPC: 1.52824 (Simulation time: 0 hr 9 min 7 sec) 
Heartbeat CPU  3 instructions:   90000001 cycles:   57491700 heartbeat IPC: 1.44384 cumulative IPC: 1.43489 (Simulation time: 0 hr 9 min 9 sec) 
Heartbeat CPU  1 instructions:   88000000 cycles:   57741395 heartbeat IPC: 1.51145 cumulative IPC: 1.50048 (Simulation time: 0 hr 9 min 12 sec) 
Heartbeat CPU  2 instructions:   89000000 cycles:   57938146 heartbeat IPC: 1.52129 cumulative IPC: 1.52806 (Simulation time: 0 hr 9 min 14 sec) 
Heartbeat CPU  3 instructions:   91000001 cycles:   58184277 heartbeat IPC: 1.44388 cumulative IPC: 1.43513 (Simulation time: 0 hr 9 min 16 sec) 
Heartbeat CPU  1 instructions:   89000001 cycles:   58402736 heartbeat IPC: 1.51208 cumulative IPC: 1.50077 (Simulation time: 0 hr 9 min 18 sec) 
Heartbeat CPU  2 instructions:   90000001 cycles:   58595483 heartbeat IPC: 1.52129 cumulative IPC: 1.52789 (Simulation time: 0 hr 9 min 20 sec) 
Heartbeat CPU  0 instructions:   77000001 cycles:   58840783 heartbeat IPC: 0.52847 cumulative IPC: 0.62073 (Simulation time: 0 hr 9 min 22 sec) 
Heartbeat CPU  3 instructions:   92000000 cycles:   58876898 heartbeat IPC: 1.44379 cumulative IPC: 1.43536 (Simulation time: 0 hr 9 min 23 sec) 
Heartbeat CPU  1 instructions:   90000001 cycles:   59064727 heartbeat IPC: 1.51059 cumulative IPC: 1.50102 (Simulation time: 0 hr 9 min 24 sec) 
Heartbeat CPU  2 instructions:   91000000 cycles:   59252843 heartbeat IPC: 1.52123 cumulative IPC: 1.52773 (Simulation time: 0 hr 9 min 26 sec) 
Heartbeat CPU  3 instructions:   93000003 cycles:   59572316 heartbeat IPC: 1.43799 cumulative IPC: 1.43543 (Simulation time: 0 hr 9 min 29 sec) 
Heartbeat CPU  1 instructions:   91000003 cycles:   59724181 heartbeat IPC: 1.51641 cumulative IPC: 1.50139 (Simulation time: 0 hr 9 min 31 sec) 
Heartbeat CPU  2 instructions:   92000000 cycles:   59910118 heartbeat IPC: 1.52143 cumulative IPC: 1.52758 (Simulation time: 0 hr 9 min 32 sec) 
Heartbeat CPU  3 instructions:   94000003 cycles:   60241379 heartbeat IPC: 1.49463 cumulative IPC: 1.43685 (Simulation time: 0 hr 9 min 36 sec) 
Heartbeat CPU  1 instructions:   92000000 cycles:   60379500 heartbeat IPC: 1.52597 cumulative IPC: 1.50197 (Simulation time: 0 hr 9 min 37 sec) 
Heartbeat CPU  2 instructions:   93000002 cycles:   60571806 heartbeat IPC: 1.51129 cumulative IPC: 1.52720 (Simulation time: 0 hr 9 min 39 sec) 
Heartbeat CPU  0 instructions:   78000003 cycles:   60723646 heartbeat IPC: 0.53111 cumulative IPC: 0.61477 (Simulation time: 0 hr 9 min 40 sec) 
Heartbeat CPU  3 instructions:   95000003 cycles:   60910408 heartbeat IPC: 1.49470 cumulative IPC: 1.43821 (Simulation time: 0 hr 9 min 42 sec) 
Heartbeat CPU  1 instructions:   93000000 cycles:   61037793 heartbeat IPC: 1.51908 cumulative IPC: 1.50236 (Simulation time: 0 hr 9 min 43 sec) 
Heartbeat CPU  2 instructions:   94000000 cycles:   61223295 heartbeat IPC: 1.53494 cumulative IPC: 1.52737 (Simulation time: 0 hr 9 min 45 sec) 
Heartbeat CPU  3 instructions:   96000000 cycles:   61579480 heartbeat IPC: 1.49460 cumulative IPC: 1.43950 (Simulation time: 0 hr 9 min 48 sec) 
Heartbeat CPU  1 instructions:   94000002 cycles:   61692427 heartbeat IPC: 1.52757 cumulative IPC: 1.50292 (Simulation time: 0 hr 9 min 49 sec) 
Heartbeat CPU  2 instructions:   95000000 cycles:   61874815 heartbeat IPC: 1.53487 cumulative IPC: 1.52754 (Simulation time: 0 hr 9 min 51 sec) 
Heartbeat CPU  3 instructions:   97000003 cycles:   62248590 heartbeat IPC: 1.49453 cumulative IPC: 1.44074 (Simulation time: 0 hr 9 min 55 sec) 
Heartbeat CPU  1 instructions:   95000002 cycles:   62347882 heartbeat IPC: 1.52566 cumulative IPC: 1.50342 (Simulation time: 0 hr 9 min 56 sec) 
Heartbeat CPU  2 instructions:   96000000 cycles:   62526345 heartbeat IPC: 1.53485 cumulative IPC: 1.52770 (Simulation time: 0 hr 9 min 57 sec) 
Heartbeat CPU  0 instructions:   79000000 cycles:   62685473 heartbeat IPC: 0.50973 cumulative IPC: 0.60796 (Simulation time: 0 hr 9 min 59 sec) 
Heartbeat CPU  3 instructions:   98000003 cycles:   62917712 heartbeat IPC: 1.49450 cumulative IPC: 1.44192 (Simulation time: 0 hr 10 min 1 sec) 
Heartbeat CPU  1 instructions:   96000000 cycles:   63001870 heartbeat IPC: 1.52908 cumulative IPC: 1.50397 (Simulation time: 0 hr 10 min 2 sec) 
Heartbeat CPU  2 instructions:   97000000 cycles:   63179573 heartbeat IPC: 1.53086 cumulative IPC: 1.52776 (Simulation time: 0 hr 10 min 4 sec) 
Heartbeat CPU  3 instructions:   99000003 cycles:   63586647 heartbeat IPC: 1.49491 cumulative IPC: 1.44305 (Simulation time: 0 hr 10 min 7 sec) 
Heartbeat CPU  1 instructions:   97000000 cycles:   63656362 heartbeat IPC: 1.52790 cumulative IPC: 1.50447 (Simulation time: 0 hr 10 min 8 sec) 
Heartbeat CPU  2 instructions:   98000000 cycles:   63832704 heartbeat IPC: 1.53109 cumulative IPC: 1.52783 (Simulation time: 0 hr 10 min 10 sec) 
*** Reached end of trace for Core: 3 Repeating trace: /pref/Pythia/NUTCH/traces/nutch_phase2_core3.trace.xz
Heartbeat CPU  3 instructions:  100000000 cycles:   64277834 heartbeat IPC: 1.44678 cumulative IPC: 1.44313 (Simulation time: 0 hr 10 min 14 sec) 
Heartbeat CPU  1 instructions:   98000000 cycles:   64311170 heartbeat IPC: 1.52717 cumulative IPC: 1.50494 (Simulation time: 0 hr 10 min 14 sec) 
Heartbeat CPU  2 instructions:   99000002 cycles:   64485925 heartbeat IPC: 1.53088 cumulative IPC: 1.52789 (Simulation time: 0 hr 10 min 16 sec) 
Heartbeat CPU  0 instructions:   80000000 cycles:   64631803 heartbeat IPC: 0.51379 cumulative IPC: 0.60227 (Simulation time: 0 hr 10 min 17 sec) 
Heartbeat CPU  3 instructions:  101000001 cycles:   64965086 heartbeat IPC: 1.45507 cumulative IPC: 1.44339 (Simulation time: 0 hr 10 min 21 sec) 
Heartbeat CPU  1 instructions:   99000002 cycles:   64965552 heartbeat IPC: 1.52816 cumulative IPC: 1.50540 (Simulation time: 0 hr 10 min 21 sec) 
*** Reached end of trace for Core: 2 Repeating trace: /pref/Pythia/NUTCH/traces/nutch_phase2_core2.trace.xz
Heartbeat CPU  2 instructions:  100000000 cycles:   65139203 heartbeat IPC: 1.53074 cumulative IPC: 1.52795 (Simulation time: 0 hr 10 min 22 sec) 
*** Reached end of trace for Core: 1 Repeating trace: /pref/Pythia/NUTCH/traces/nutch_phase2_core1.trace.xz
Heartbeat CPU  1 instructions:  100000000 cycles:   65626606 heartbeat IPC: 1.51273 cumulative IPC: 1.50555 (Simulation time: 0 hr 10 min 27 sec) 
Heartbeat CPU  3 instructions:  102000001 cycles:   65652183 heartbeat IPC: 1.45540 cumulative IPC: 1.44363 (Simulation time: 0 hr 10 min 27 sec) 
Heartbeat CPU  2 instructions:  101000003 cycles:   65790313 heartbeat IPC: 1.53584 cumulative IPC: 1.52810 (Simulation time: 0 hr 10 min 28 sec) 
Heartbeat CPU  1 instructions:  101000002 cycles:   66278335 heartbeat IPC: 1.53438 cumulative IPC: 1.50610 (Simulation time: 0 hr 10 min 33 sec) 
Heartbeat CPU  3 instructions:  103000001 cycles:   66339314 heartbeat IPC: 1.45533 cumulative IPC: 1.44387 (Simulation time: 0 hr 10 min 34 sec) 
Heartbeat CPU  2 instructions:  102000003 cycles:   66441380 heartbeat IPC: 1.53594 cumulative IPC: 1.52825 (Simulation time: 0 hr 10 min 35 sec) 
Heartbeat CPU  0 instructions:   81000002 cycles:   66653764 heartbeat IPC: 0.49457 cumulative IPC: 0.59591 (Simulation time: 0 hr 10 min 37 sec) 
Heartbeat CPU  1 instructions:  102000001 cycles:   66929931 heartbeat IPC: 1.53469 cumulative IPC: 1.50664 (Simulation time: 0 hr 10 min 39 sec) 
Heartbeat CPU  3 instructions:  104000000 cycles:   67026487 heartbeat IPC: 1.45524 cumulative IPC: 1.44410 (Simulation time: 0 hr 10 min 40 sec) 
Heartbeat CPU  2 instructions:  103000002 cycles:   67092387 heartbeat IPC: 1.53608 cumulative IPC: 1.52840 (Simulation time: 0 hr 10 min 41 sec) 
Heartbeat CPU  1 instructions:  103000000 cycles:   67583262 heartbeat IPC: 1.53062 cumulative IPC: 1.50709 (Simulation time: 0 hr 10 min 46 sec) 
Heartbeat CPU  3 instructions:  105000001 cycles:   67713710 heartbeat IPC: 1.45513 cumulative IPC: 1.44431 (Simulation time: 0 hr 10 min 47 sec) 
Heartbeat CPU  2 instructions:  104000000 cycles:   67743511 heartbeat IPC: 1.53580 cumulative IPC: 1.52854 (Simulation time: 0 hr 10 min 47 sec) 
Heartbeat CPU  1 instructions:  104000000 cycles:   68236563 heartbeat IPC: 1.53069 cumulative IPC: 1.50752 (Simulation time: 0 hr 10 min 52 sec) 
Heartbeat CPU  2 instructions:  105000000 cycles:   68394606 heartbeat IPC: 1.53587 cumulative IPC: 1.52867 (Simulation time: 0 hr 10 min 54 sec) 
Heartbeat CPU  3 instructions:  106000001 cycles:   68400845 heartbeat IPC: 1.45532 cumulative IPC: 1.44452 (Simulation time: 0 hr 10 min 54 sec) 
Heartbeat CPU  0 instructions:   82000003 cycles:   68416662 heartbeat IPC: 0.56725 cumulative IPC: 0.59451 (Simulation time: 0 hr 10 min 54 sec) 
Heartbeat CPU  1 instructions:  105000000 cycles:   68890429 heartbeat IPC: 1.52937 cumulative IPC: 1.50791 (Simulation time: 0 hr 10 min 58 sec) 
Heartbeat CPU  2 instructions:  106000001 cycles:   69045697 heartbeat IPC: 1.53589 cumulative IPC: 1.52880 (Simulation time: 0 hr 11 min 0 sec) 
Heartbeat CPU  3 instructions:  107000001 cycles:   69088004 heartbeat IPC: 1.45527 cumulative IPC: 1.44472 (Simulation time: 0 hr 11 min 0 sec) 
Heartbeat CPU  1 instructions:  106000003 cycles:   69545213 heartbeat IPC: 1.52723 cumulative IPC: 1.50825 (Simulation time: 0 hr 11 min 5 sec) 
Heartbeat CPU  2 instructions:  107000000 cycles:   69696764 heartbeat IPC: 1.53594 cumulative IPC: 1.52892 (Simulation time: 0 hr 11 min 6 sec) 
Heartbeat CPU  3 instructions:  108000000 cycles:   69775106 heartbeat IPC: 1.45539 cumulative IPC: 1.44492 (Simulation time: 0 hr 11 min 7 sec) 
Heartbeat CPU  1 instructions:  107000002 cycles:   70197068 heartbeat IPC: 1.53408 cumulative IPC: 1.50870 (Simulation time: 0 hr 11 min 11 sec) 
Heartbeat CPU  0 instructions:   83000000 cycles:   70227770 heartbeat IPC: 0.55215 cumulative IPC: 0.59248 (Simulation time: 0 hr 11 min 11 sec) 
Heartbeat CPU  2 instructions:  108000000 cycles:   70347803 heartbeat IPC: 1.53601 cumulative IPC: 1.52905 (Simulation time: 0 hr 11 min 12 sec) 
Heartbeat CPU  3 instructions:  109000001 cycles:   70462290 heartbeat IPC: 1.45522 cumulative IPC: 1.44511 (Simulation time: 0 hr 11 min 14 sec) 
Heartbeat CPU  1 instructions:  108000000 cycles:   70848482 heartbeat IPC: 1.53512 cumulative IPC: 1.50915 (Simulation time: 0 hr 11 min 17 sec) 
Heartbeat CPU  2 instructions:  109000000 cycles:   70998897 heartbeat IPC: 1.53588 cumulative IPC: 1.52916 (Simulation time: 0 hr 11 min 19 sec) 
Heartbeat CPU  3 instructions:  110000001 cycles:   71149453 heartbeat IPC: 1.45526 cumulative IPC: 1.44529 (Simulation time: 0 hr 11 min 20 sec) 
Heartbeat CPU  1 instructions:  109000002 cycles:   71499759 heartbeat IPC: 1.53545 cumulative IPC: 1.50958 (Simulation time: 0 hr 11 min 23 sec) 
Heartbeat CPU  2 instructions:  110000003 cycles:   71649966 heartbeat IPC: 1.53594 cumulative IPC: 1.52927 (Simulation time: 0 hr 11 min 25 sec) 
Heartbeat CPU  3 instructions:  111000001 cycles:   71836608 heartbeat IPC: 1.45528 cumulative IPC: 1.44546 (Simulation time: 0 hr 11 min 27 sec) 
Heartbeat CPU  0 instructions:   84000000 cycles:   72092403 heartbeat IPC: 0.53630 cumulative IPC: 0.58984 (Simulation time: 0 hr 11 min 29 sec) 
Heartbeat CPU  1 instructions:  110000001 cycles:   72150526 heartbeat IPC: 1.53665 cumulative IPC: 1.51003 (Simulation time: 0 hr 11 min 30 sec) 
Heartbeat CPU  2 instructions:  111000002 cycles:   72301084 heartbeat IPC: 1.53582 cumulative IPC: 1.52938 (Simulation time: 0 hr 11 min 31 sec) 
Heartbeat CPU  3 instructions:  112000000 cycles:   72523743 heartbeat IPC: 1.45532 cumulative IPC: 1.44563 (Simulation time: 0 hr 11 min 33 sec) 
Heartbeat CPU  1 instructions:  111000003 cycles:   72803958 heartbeat IPC: 1.53038 cumulative IPC: 1.51036 (Simulation time: 0 hr 11 min 36 sec) 
Heartbeat CPU  2 instructions:  112000000 cycles:   72952112 heartbeat IPC: 1.53603 cumulative IPC: 1.52949 (Simulation time: 0 hr 11 min 37 sec) 
Heartbeat CPU  3 instructions:  113000002 cycles:   73217677 heartbeat IPC: 1.44106 cumulative IPC: 1.44555 (Simulation time: 0 hr 11 min 40 sec) 
Heartbeat CPU  1 instructions:  112000000 cycles:   73457899 heartbeat IPC: 1.52919 cumulative IPC: 1.51066 (Simulation time: 0 hr 11 min 42 sec) 
Heartbeat CPU  2 instructions:  113000003 cycles:   73608047 heartbeat IPC: 1.52455 cumulative IPC: 1.52941 (Simulation time: 0 hr 11 min 43 sec) 
Heartbeat CPU  3 instructions:  114000002 cycles:   73923108 heartbeat IPC: 1.41757 cumulative IPC: 1.44508 (Simulation time: 0 hr 11 min 46 sec) 
Heartbeat CPU  1 instructions:  113000000 cycles:   74116513 heartbeat IPC: 1.51834 cumulative IPC: 1.51078 (Simulation time: 0 hr 11 min 48 sec) 
Heartbeat CPU  0 instructions:   85000003 cycles:   74242150 heartbeat IPC: 0.46517 cumulative IPC: 0.58343 (Simulation time: 0 hr 11 min 49 sec) 
Heartbeat CPU  2 instructions:  114000001 cycles:   74258073 heartbeat IPC: 1.53840 cumulative IPC: 1.52955 (Simulation time: 0 hr 11 min 49 sec) 
Heartbeat CPU  3 instructions:  115000002 cycles:   74628619 heartbeat IPC: 1.41741 cumulative IPC: 1.44461 (Simulation time: 0 hr 11 min 53 sec) 
Heartbeat CPU  1 instructions:  114000003 cycles:   74769570 heartbeat IPC: 1.53126 cumulative IPC: 1.51109 (Simulation time: 0 hr 11 min 54 sec) 
Heartbeat CPU  2 instructions:  115000001 cycles:   74908063 heartbeat IPC: 1.53849 cumulative IPC: 1.52968 (Simulation time: 0 hr 11 min 55 sec) 
Heartbeat CPU  3 instructions:  116000000 cycles:   75334033 heartbeat IPC: 1.41760 cumulative IPC: 1.44417 (Simulation time: 0 hr 11 min 59 sec) 
Heartbeat CPU  1 instructions:  115000001 cycles:   75423309 heartbeat IPC: 1.52966 cumulative IPC: 1.51138 (Simulation time: 0 hr 12 min 0 sec) 
Heartbeat CPU  2 instructions:  116000000 cycles:   75558054 heartbeat IPC: 1.53848 cumulative IPC: 1.52982 (Simulation time: 0 hr 12 min 2 sec) 
Heartbeat CPU  3 instructions:  117000002 cycles:   76039630 heartbeat IPC: 1.41724 cumulative IPC: 1.44373 (Simulation time: 0 hr 12 min 6 sec) 
Heartbeat CPU  1 instructions:  116000000 cycles:   76076749 heartbeat IPC: 1.53036 cumulative IPC: 1.51166 (Simulation time: 0 hr 12 min 6 sec) 
Heartbeat CPU  2 instructions:  117000001 cycles:   76208105 heartbeat IPC: 1.53834 cumulative IPC: 1.52994 (Simulation time: 0 hr 12 min 8 sec) 
Heartbeat CPU  0 instructions:   86000002 cycles:   76381023 heartbeat IPC: 0.46754 cumulative IPC: 0.57779 (Simulation time: 0 hr 12 min 9 sec) 
Heartbeat CPU  1 instructions:  117000003 cycles:   76730520 heartbeat IPC: 1.52959 cumulative IPC: 1.51192 (Simulation time: 0 hr 12 min 13 sec) 
Heartbeat CPU  3 instructions:  118000002 cycles:   76745042 heartbeat IPC: 1.41761 cumulative IPC: 1.44332 (Simulation time: 0 hr 12 min 13 sec) 
Heartbeat CPU  2 instructions:  118000003 cycles:   76858114 heartbeat IPC: 1.53844 cumulative IPC: 1.53007 (Simulation time: 0 hr 12 min 14 sec) 
Heartbeat CPU  1 instructions:  118000001 cycles:   77384471 heartbeat IPC: 1.52916 cumulative IPC: 1.51218 (Simulation time: 0 hr 12 min 19 sec) 
Heartbeat CPU  3 instructions:  119000002 cycles:   77450540 heartbeat IPC: 1.41744 cumulative IPC: 1.44291 (Simulation time: 0 hr 12 min 19 sec) 
Heartbeat CPU  2 instructions:  119000003 cycles:   77508095 heartbeat IPC: 1.53851 cumulative IPC: 1.53019 (Simulation time: 0 hr 12 min 20 sec) 
Heartbeat CPU  1 instructions:  119000001 cycles:   78037967 heartbeat IPC: 1.53023 cumulative IPC: 1.51243 (Simulation time: 0 hr 12 min 25 sec) 
Heartbeat CPU  3 instructions:  120000000 cycles:   78155978 heartbeat IPC: 1.41756 cumulative IPC: 1.44252 (Simulation time: 0 hr 12 min 26 sec) 
Heartbeat CPU  2 instructions:  120000000 cycles:   78158088 heartbeat IPC: 1.53847 cumulative IPC: 1.53031 (Simulation time: 0 hr 12 min 26 sec) 
Heartbeat CPU  0 instructions:   87000002 cycles:   78300064 heartbeat IPC: 0.52109 cumulative IPC: 0.57542 (Simulation time: 0 hr 12 min 28 sec) 
Heartbeat CPU  1 instructions:  120000000 cycles:   78692093 heartbeat IPC: 1.52876 cumulative IPC: 1.51266 (Simulation time: 0 hr 12 min 31 sec) 
Heartbeat CPU  2 instructions:  121000003 cycles:   78808147 heartbeat IPC: 1.53833 cumulative IPC: 1.53042 (Simulation time: 0 hr 12 min 32 sec) 
Heartbeat CPU  3 instructions:  121000002 cycles:   78861537 heartbeat IPC: 1.41732 cumulative IPC: 1.44214 (Simulation time: 0 hr 12 min 33 sec) 
Heartbeat CPU  1 instructions:  121000001 cycles:   79346073 heartbeat IPC: 1.52910 cumulative IPC: 1.51289 (Simulation time: 0 hr 12 min 38 sec) 
Heartbeat CPU  2 instructions:  122000001 cycles:   79458136 heartbeat IPC: 1.53848 cumulative IPC: 1.53053 (Simulation time: 0 hr 12 min 39 sec) 
Heartbeat CPU  3 instructions:  122000002 cycles:   79567008 heartbeat IPC: 1.41749 cumulative IPC: 1.44177 (Simulation time: 0 hr 12 min 40 sec) 
Heartbeat CPU  1 instructions:  122000003 cycles:   80000074 heartbeat IPC: 1.52905 cumulative IPC: 1.51312 (Simulation time: 0 hr 12 min 44 sec) 
Heartbeat CPU  2 instructions:  123000001 cycles:   80108130 heartbeat IPC: 1.53848 cumulative IPC: 1.53064 (Simulation time: 0 hr 12 min 45 sec) 
Heartbeat CPU  0 instructions:   88000000 cycles:   80162534 heartbeat IPC: 0.53692 cumulative IPC: 0.57392 (Simulation time: 0 hr 12 min 45 sec) 
Heartbeat CPU  3 instructions:  123000002 cycles:   80272445 heartbeat IPC: 1.41756 cumulative IPC: 1.44141 (Simulation time: 0 hr 12 min 46 sec) 
Heartbeat CPU  1 instructions:  123000003 cycles:   80653796 heartbeat IPC: 1.52970 cumulative IPC: 1.51334 (Simulation time: 0 hr 12 min 50 sec) 
Heartbeat CPU  2 instructions:  124000000 cycles:   80758123 heartbeat IPC: 1.53848 cumulative IPC: 1.53074 (Simulation time: 0 hr 12 min 51 sec) 
Heartbeat CPU  3 instructions:  124000000 cycles:   80977978 heartbeat IPC: 1.41737 cumulative IPC: 1.44106 (Simulation time: 0 hr 12 min 53 sec) 
Heartbeat CPU  1 instructions:  124000000 cycles:   81308405 heartbeat IPC: 1.52762 cumulative IPC: 1.51353 (Simulation time: 0 hr 12 min 56 sec) 
Heartbeat CPU  2 instructions:  125000001 cycles:   81408200 heartbeat IPC: 1.53828 cumulative IPC: 1.53084 (Simulation time: 0 hr 12 min 57 sec) 
Heartbeat CPU  3 instructions:  125000002 cycles:   81683471 heartbeat IPC: 1.41745 cumulative IPC: 1.44073 (Simulation time: 0 hr 13 min 0 sec) 
Heartbeat CPU  1 instructions:  125000003 cycles:   81962848 heartbeat IPC: 1.52802 cumulative IPC: 1.51372 (Simulation time: 0 hr 13 min 2 sec) 
Heartbeat CPU  2 instructions:  126000001 cycles:   82058147 heartbeat IPC: 1.53859 cumulative IPC: 1.53095 (Simulation time: 0 hr 13 min 3 sec) 
Heartbeat CPU  0 instructions:   89000000 cycles:   82204686 heartbeat IPC: 0.48968 cumulative IPC: 0.57046 (Simulation time: 0 hr 13 min 5 sec) 
Heartbeat CPU  3 instructions:  126000002 cycles:   82388921 heartbeat IPC: 1.41753 cumulative IPC: 1.44040 (Simulation time: 0 hr 13 min 6 sec) 
Heartbeat CPU  1 instructions:  126000001 cycles:   82616851 heartbeat IPC: 1.52904 cumulative IPC: 1.51392 (Simulation time: 0 hr 13 min 8 sec) 
Heartbeat CPU  2 instructions:  127000003 cycles:   82708131 heartbeat IPC: 1.53850 cumulative IPC: 1.53104 (Simulation time: 0 hr 13 min 9 sec) 
Heartbeat CPU  3 instructions:  127000002 cycles:   83094404 heartbeat IPC: 1.41747 cumulative IPC: 1.44008 (Simulation time: 0 hr 13 min 13 sec) 
Heartbeat CPU  1 instructions:  127000001 cycles:   83272426 heartbeat IPC: 1.52538 cumulative IPC: 1.51407 (Simulation time: 0 hr 13 min 14 sec) 
Heartbeat CPU  2 instructions:  128000000 cycles:   83358110 heartbeat IPC: 1.53851 cumulative IPC: 1.53114 (Simulation time: 0 hr 13 min 15 sec) 
Heartbeat CPU  3 instructions:  128000000 cycles:   83799882 heartbeat IPC: 1.41748 cumulative IPC: 1.43977 (Simulation time: 0 hr 13 min 19 sec) 
Heartbeat CPU  1 instructions:  128000000 cycles:   83927318 heartbeat IPC: 1.52697 cumulative IPC: 1.51423 (Simulation time: 0 hr 13 min 20 sec) 
Heartbeat CPU  2 instructions:  129000003 cycles:   84008185 heartbeat IPC: 1.53829 cumulative IPC: 1.53123 (Simulation time: 0 hr 13 min 21 sec) 
Heartbeat CPU  3 instructions:  129000002 cycles:   84505436 heartbeat IPC: 1.41733 cumulative IPC: 1.43946 (Simulation time: 0 hr 13 min 26 sec) 
Heartbeat CPU  1 instructions:  129000001 cycles:   84584635 heartbeat IPC: 1.52134 cumulative IPC: 1.51432 (Simulation time: 0 hr 13 min 27 sec) 
Heartbeat CPU  0 instructions:   90000001 cycles:   84594074 heartbeat IPC: 0.41852 cumulative IPC: 0.56351 (Simulation time: 0 hr 13 min 27 sec) 
Heartbeat CPU  2 instructions:  130000003 cycles:   84658148 heartbeat IPC: 1.53855 cumulative IPC: 1.53132 (Simulation time: 0 hr 13 min 27 sec) 
Heartbeat CPU  3 instructions:  130000002 cycles:   85210848 heartbeat IPC: 1.41761 cumulative IPC: 1.43917 (Simulation time: 0 hr 13 min 32 sec) 
Heartbeat CPU  1 instructions:  130000001 cycles:   85238732 heartbeat IPC: 1.52883 cumulative IPC: 1.51450 (Simulation time: 0 hr 13 min 33 sec) 
Heartbeat CPU  2 instructions:  131000001 cycles:   85308116 heartbeat IPC: 1.53853 cumulative IPC: 1.53141 (Simulation time: 0 hr 13 min 33 sec) 
Heartbeat CPU  1 instructions:  131000003 cycles:   85892737 heartbeat IPC: 1.52904 cumulative IPC: 1.51468 (Simulation time: 0 hr 13 min 39 sec) 
Heartbeat CPU  3 instructions:  131000002 cycles:   85916357 heartbeat IPC: 1.41742 cumulative IPC: 1.43889 (Simulation time: 0 hr 13 min 39 sec) 
Heartbeat CPU  2 instructions:  132000000 cycles:   85958141 heartbeat IPC: 1.53840 cumulative IPC: 1.53149 (Simulation time: 0 hr 13 min 39 sec) 
Heartbeat CPU  1 instructions:  132000000 cycles:   86545778 heartbeat IPC: 1.53129 cumulative IPC: 1.51488 (Simulation time: 0 hr 13 min 45 sec) 
Heartbeat CPU  2 instructions:  133000000 cycles:   86616667 heartbeat IPC: 1.51854 cumulative IPC: 1.53134 (Simulation time: 0 hr 13 min 45 sec) 
Heartbeat CPU  3 instructions:  132000000 cycles:   86621773 heartbeat IPC: 1.41760 cumulative IPC: 1.43861 (Simulation time: 0 hr 13 min 45 sec) 
Heartbeat CPU  2 instructions:  134000000 cycles:   87274785 heartbeat IPC: 1.51948 cumulative IPC: 1.53119 (Simulation time: 0 hr 13 min 51 sec) 
Heartbeat CPU  1 instructions:  133000000 cycles:   87274851 heartbeat IPC: 1.37160 cumulative IPC: 1.51298 (Simulation time: 0 hr 13 min 51 sec) 
Heartbeat CPU  3 instructions:  133000002 cycles:   87353491 heartbeat IPC: 1.36665 cumulative IPC: 1.43765 (Simulation time: 0 hr 13 min 52 sec) 
Heartbeat CPU  0 instructions:   91000001 cycles:   87483104 heartbeat IPC: 0.34614 cumulative IPC: 0.55210 (Simulation time: 0 hr 13 min 53 sec) 
Heartbeat CPU  1 instructions:  134000003 cycles:   87928131 heartbeat IPC: 1.53074 cumulative IPC: 1.51319 (Simulation time: 0 hr 13 min 57 sec) 
Heartbeat CPU  2 instructions:  135000002 cycles:   87932834 heartbeat IPC: 1.51965 cumulative IPC: 1.53106 (Simulation time: 0 hr 13 min 57 sec) 
Heartbeat CPU  3 instructions:  134000002 cycles:   88054222 heartbeat IPC: 1.42708 cumulative IPC: 1.43752 (Simulation time: 0 hr 13 min 58 sec) 
Heartbeat CPU  1 instructions:  135000001 cycles:   88581121 heartbeat IPC: 1.53141 cumulative IPC: 1.51340 (Simulation time: 0 hr 14 min 3 sec) 
Heartbeat CPU  2 instructions:  136000000 cycles:   88590826 heartbeat IPC: 1.51977 cumulative IPC: 1.53092 (Simulation time: 0 hr 14 min 3 sec) 
Heartbeat CPU  3 instructions:  135000002 cycles:   88755108 heartbeat IPC: 1.42677 cumulative IPC: 1.43738 (Simulation time: 0 hr 14 min 5 sec) 
Heartbeat CPU  1 instructions:  136000000 cycles:   89234390 heartbeat IPC: 1.53076 cumulative IPC: 1.51360 (Simulation time: 0 hr 14 min 9 sec) 
Heartbeat CPU  2 instructions:  137000000 cycles:   89248879 heartbeat IPC: 1.51963 cumulative IPC: 1.53079 (Simulation time: 0 hr 14 min 9 sec) 
Heartbeat CPU  3 instructions:  136000000 cycles:   89455928 heartbeat IPC: 1.42690 cumulative IPC: 1.43725 (Simulation time: 0 hr 14 min 12 sec) 
Heartbeat CPU  0 instructions:   92000000 cycles:   89530540 heartbeat IPC: 0.48842 cumulative IPC: 0.54982 (Simulation time: 0 hr 14 min 12 sec) 
Heartbeat CPU  1 instructions:  137000003 cycles:   89887840 heartbeat IPC: 1.53034 cumulative IPC: 1.51379 (Simulation time: 0 hr 14 min 16 sec) 
Heartbeat CPU  2 instructions:  138000002 cycles:   89906889 heartbeat IPC: 1.51974 cumulative IPC: 1.53067 (Simulation time: 0 hr 14 min 16 sec) 
Heartbeat CPU  3 instructions:  137000002 cycles:   90156846 heartbeat IPC: 1.42670 cumulative IPC: 1.43713 (Simulation time: 0 hr 14 min 19 sec) 
Heartbeat CPU  0 instructions:   93000001 cycles:   90488551 heartbeat IPC: 1.04383 cumulative IPC: 0.55797 (Simulation time: 0 hr 14 min 23 sec) 
Heartbeat CPU  1 instructions:  138000001 cycles:   90540847 heartbeat IPC: 1.53137 cumulative IPC: 1.51399 (Simulation time: 0 hr 14 min 23 sec) 
Heartbeat CPU  2 instructions:  139000002 cycles:   90564905 heartbeat IPC: 1.51972 cumulative IPC: 1.53054 (Simulation time: 0 hr 14 min 24 sec) 
Heartbeat CPU  3 instructions:  138000002 cycles:   90857631 heartbeat IPC: 1.42697 cumulative IPC: 1.43700 (Simulation time: 0 hr 14 min 27 sec) 
Heartbeat CPU  1 instructions:  139000003 cycles:   91200354 heartbeat IPC: 1.51629 cumulative IPC: 1.51401 (Simulation time: 0 hr 14 min 30 sec) 
Heartbeat CPU  2 instructions:  140000000 cycles:   91222857 heartbeat IPC: 1.51986 cumulative IPC: 1.53042 (Simulation time: 0 hr 14 min 31 sec) 
Heartbeat CPU  0 instructions:   94000002 cycles:   91540927 heartbeat IPC: 0.95023 cumulative IPC: 0.56495 (Simulation time: 0 hr 14 min 34 sec) 
Heartbeat CPU  3 instructions:  139000002 cycles:   91558506 heartbeat IPC: 1.42679 cumulative IPC: 1.43688 (Simulation time: 0 hr 14 min 34 sec) 
Heartbeat CPU  1 instructions:  140000000 cycles:   91851826 heartbeat IPC: 1.53498 cumulative IPC: 1.51424 (Simulation time: 0 hr 14 min 38 sec) 
Heartbeat CPU  2 instructions:  141000002 cycles:   91880905 heartbeat IPC: 1.51965 cumulative IPC: 1.53030 (Simulation time: 0 hr 14 min 38 sec) 
Heartbeat CPU  3 instructions:  140000000 cycles:   92259203 heartbeat IPC: 1.42715 cumulative IPC: 1.43677 (Simulation time: 0 hr 14 min 42 sec) 
Heartbeat CPU  1 instructions:  141000001 cycles:   92503443 heartbeat IPC: 1.53465 cumulative IPC: 1.51446 (Simulation time: 0 hr 14 min 44 sec) 
Heartbeat CPU  2 instructions:  142000000 cycles:   92538924 heartbeat IPC: 1.51971 cumulative IPC: 1.53019 (Simulation time: 0 hr 14 min 45 sec) 
Heartbeat CPU  3 instructions:  141000002 cycles:   92960117 heartbeat IPC: 1.42671 cumulative IPC: 1.43665 (Simulation time: 0 hr 14 min 49 sec) 
Heartbeat CPU  1 instructions:  142000003 cycles:   93154027 heartbeat IPC: 1.53708 cumulative IPC: 1.51471 (Simulation time: 0 hr 14 min 51 sec) 
Heartbeat CPU  0 instructions:   95000003 cycles:   93191982 heartbeat IPC: 0.60567 cumulative IPC: 0.56606 (Simulation time: 0 hr 14 min 52 sec) 
Heartbeat CPU  2 instructions:  143000000 cycles:   93196940 heartbeat IPC: 1.51972 cumulative IPC: 1.53008 (Simulation time: 0 hr 14 min 52 sec) 
Heartbeat CPU  3 instructions:  142000002 cycles:   93660905 heartbeat IPC: 1.42697 cumulative IPC: 1.43654 (Simulation time: 0 hr 14 min 56 sec) 
Heartbeat CPU  1 instructions:  143000003 cycles:   93804389 heartbeat IPC: 1.53761 cumulative IPC: 1.51495 (Simulation time: 0 hr 14 min 58 sec) 
[...]
Core_0_L2C_prefetch_miss 1614598
Core_0_L2C_writebacks 592157
Core_0_L2C_writeback_hit 591843
Core_0_L2C_writeback_miss 314
Core_0_L2C_prefetch_requested 5731524
Core_0_L2C_prefetch_dropped 0
Core_0_L2C_prefetch_issued 5731524
Core_0_L2C_prefetch_filled 2512515
Core_0_L2C_prefetch_useful 1478892
Core_0_L2C_prefetch_useless 1033540
Core_0_L2C_prefetch_late 198405
Core_0_L2C_average_miss_latency 133.27563

Core_0_L2C_rq_access 2248613
Core_0_L2C_rq_forward 0
Core_0_L2C_rq_merged 0
Core_0_L2C_rq_to_cache 2248598
Core_0_L2C_rq_full 0

Core_0_L2C_wq_access 592157
Core_0_L2C_wq_forward 15
Core_0_L2C_wq_merged 0
Core_0_L2C_wq_to_cache 592157
Core_0_L2C_wq_full 0

Core_0_L2C_pq_access 5731524
Core_0_L2C_pq_forward 0
Core_0_L2C_pq_merged 166007
Core_0_L2C_pq_to_cache 5565517
Core_0_L2C_pq_full 0

Core_0_L2C_acc_epochs 215145
Core_0_L2C_acc_level_0 19643
Core_0_L2C_acc_level_1 8117
Core_0_L2C_acc_level_2 8450
Core_0_L2C_acc_level_3 12252
Core_0_L2C_acc_level_4 12834
Core_0_L2C_acc_level_5 12770
Core_0_L2C_acc_level_6 12495
Core_0_L2C_acc_level_7 13088
Core_0_L2C_acc_level_8 16525
Core_0_L2C_acc_level_9 98971

Core_0_LLC_total_access 3331982
Core_0_LLC_total_hit 1597115
Core_0_LLC_total_miss 1734867
Core_0_LLC_loads 723912
Core_0_LLC_load_hit 353212
Core_0_LLC_load_miss 370700
Core_0_LLC_RFOs 233355
Core_0_LLC_RFO_hit 29865
Core_0_LLC_RFO_miss 203490
Core_0_LLC_prefetches 1808969
Core_0_LLC_prefetch_hit 691781
Core_0_LLC_prefetch_miss 1117188
Core_0_LLC_writebacks 565746
Core_0_LLC_writeback_hit 522257
Core_0_LLC_writeback_miss 43489
Core_0_LLC_prefetch_requested 0
Core_0_LLC_prefetch_dropped 0
Core_0_LLC_prefetch_issued 0
Core_0_LLC_prefetch_filled 1699924
Core_0_LLC_prefetch_useful 100545
Core_0_LLC_prefetch_useless 1557023
Core_0_LLC_prefetch_late 0
Core_0_LLC_average_miss_latency 154.14750

Core_0_LLC_rq_access 962390
Core_0_LLC_rq_forward 0
Core_0_LLC_rq_merged 0
Core_0_LLC_rq_to_cache 962390
Core_0_LLC_rq_full 0

Core_0_LLC_wq_access 567333
Core_0_LLC_wq_forward 0
Core_0_LLC_wq_merged 0
Core_0_LLC_wq_to_cache 567333
Core_0_LLC_wq_full 0

Core_0_LLC_pq_access 2720934
Core_0_LLC_pq_forward 0
Core_0_LLC_pq_merged 0
Core_0_LLC_pq_to_cache 2720934
Core_0_LLC_pq_full 0

Core_0_LLC_acc_epochs 305638
Core_0_LLC_acc_level_0 261079
Core_0_LLC_acc_level_1 12920
Core_0_LLC_acc_level_2 8311
Core_0_LLC_acc_level_3 3880
Core_0_LLC_acc_level_4 2027
Core_0_LLC_acc_level_5 5164
Core_0_LLC_acc_level_6 1911
Core_0_LLC_acc_level_7 1548
Core_0_LLC_acc_level_8 1168
Core_0_LLC_acc_level_9 7630

Core_0_major_page_fault 0
Core_0_minor_page_fault 11115

Core_1_instructions 150000001
Core_1_cycles 99104289
Core_1_IPC 1.51356

Core_1_branch_prediction_accuracy 99.99364
Core_1_branch_MPKI 0.01617
Core_1_average_ROB_occupancy_at_mispredict 46.09041

Core_1_L1D_total_access 25057660
Core_1_L1D_total_hit 25055359
Core_1_L1D_total_miss 2301
Core_1_L1D_loads 22592516
Core_1_L1D_load_hit 22590696
Core_1_L1D_load_miss 1820
Core_1_L1D_RFOs 2465144
Core_1_L1D_RFO_hit 2464663
Core_1_L1D_RFO_miss 481
Core_1_L1D_prefetches 0
Core_1_L1D_prefetch_hit 0
Core_1_L1D_prefetch_miss 0
Core_1_L1D_writebacks 0
Core_1_L1D_writeback_hit 0
Core_1_L1D_writeback_miss 0
Core_1_L1D_prefetch_requested 0
Core_1_L1D_prefetch_dropped 0
Core_1_L1D_prefetch_issued 0
Core_1_L1D_prefetch_filled 0
Core_1_L1D_prefetch_useful 0
Core_1_L1D_prefetch_useless 0
Core_1_L1D_prefetch_late 0
Core_1_L1D_average_miss_latency 351.22642

Core_1_L1D_rq_access 95719638
Core_1_L1D_rq_forward 0
Core_1_L1D_rq_merged 31671865
Core_1_L1D_rq_to_cache 64047771
Core_1_L1D_rq_full 0

Core_1_L1D_wq_access 6995708
Core_1_L1D_wq_forward 2
Core_1_L1D_wq_merged 47
Core_1_L1D_wq_to_cache 6995661
Core_1_L1D_wq_full 0

Core_1_L1D_pq_access 0
Core_1_L1D_pq_forward 0
Core_1_L1D_pq_merged 0
Core_1_L1D_pq_to_cache 0
Core_1_L1D_pq_full 0

Core_1_L1D_acc_epochs 304505
Core_1_L1D_acc_level_0 304505
Core_1_L1D_acc_level_1 0
Core_1_L1D_acc_level_2 0
Core_1_L1D_acc_level_3 0
Core_1_L1D_acc_level_4 0
Core_1_L1D_acc_level_5 0
Core_1_L1D_acc_level_6 0
Core_1_L1D_acc_level_7 0
Core_1_L1D_acc_level_8 0
Core_1_L1D_acc_level_9 0

Core_1_L1I_total_access 42989471
Core_1_L1I_total_hit 42985477
Core_1_L1I_total_miss 3994
Core_1_L1I_loads 42989471
Core_1_L1I_load_hit 42985477
Core_1_L1I_load_miss 3994
Core_1_L1I_RFOs 0
Core_1_L1I_RFO_hit 0
Core_1_L1I_RFO_miss 0
Core_1_L1I_prefetches 0
Core_1_L1I_prefetch_hit 0
Core_1_L1I_prefetch_miss 0
Core_1_L1I_writebacks 0
Core_1_L1I_writeback_hit 0
Core_1_L1I_writeback_miss 0
Core_1_L1I_prefetch_requested 0
Core_1_L1I_prefetch_dropped 0
Core_1_L1I_prefetch_issued 0
Core_1_L1I_prefetch_filled 0
Core_1_L1I_prefetch_useful 0
Core_1_L1I_prefetch_useless 0
Core_1_L1I_prefetch_late 0
Core_1_L1I_average_miss_latency 253.16700

Core_1_L1I_rq_access 425516439
Core_1_L1I_rq_forward 0
Core_1_L1I_rq_merged 303592717
Core_1_L1I_rq_to_cache 121923722
Core_1_L1I_rq_full 0

Core_1_L1I_wq_access 0
Core_1_L1I_wq_forward 0
Core_1_L1I_wq_merged 0
Core_1_L1I_wq_to_cache 0
Core_1_L1I_wq_full 0

Core_1_L1I_pq_access 0
Core_1_L1I_pq_forward 0
Core_1_L1I_pq_merged 0
Core_1_L1I_pq_to_cache 0
Core_1_L1I_pq_full 0

Core_1_L1I_acc_epochs 304505
Core_1_L1I_acc_level_0 304505
Core_1_L1I_acc_level_1 0
Core_1_L1I_acc_level_2 0
Core_1_L1I_acc_level_3 0
Core_1_L1I_acc_level_4 0
Core_1_L1I_acc_level_5 0
Core_1_L1I_acc_level_6 0
Core_1_L1I_acc_level_7 0
Core_1_L1I_acc_level_8 0
Core_1_L1I_acc_level_9 0

Core_1_L2C_total_access 16782
Core_1_L2C_total_hit 11012
Core_1_L2C_total_miss 5770
Core_1_L2C_loads 5814
Core_1_L2C_load_hit 3793
Core_1_L2C_load_miss 2021
Core_1_L2C_RFOs 481
Core_1_L2C_RFO_hit 201
Core_1_L2C_RFO_miss 280
Core_1_L2C_prefetches 9398
Core_1_L2C_prefetch_hit 6029
Core_1_L2C_prefetch_miss 3369
Core_1_L2C_writebacks 1089
Core_1_L2C_writeback_hit 989
Core_1_L2C_writeback_miss 100
Core_1_L2C_prefetch_requested 32388
Core_1_L2C_prefetch_dropped 0
Core_1_L2C_prefetch_issued 32388
Core_1_L2C_prefetch_filled 8675
Core_1_L2C_prefetch_useful 2496
Core_1_L2C_prefetch_useless 4691
Core_1_L2C_prefetch_late 433
Core_1_L2C_average_miss_latency 508.88423

Core_1_L2C_rq_access 16573
Core_1_L2C_rq_forward 0
Core_1_L2C_rq_merged 0
Core_1_L2C_rq_to_cache 16573
Core_1_L2C_rq_full 0

Core_1_L2C_wq_access 3018
Core_1_L2C_wq_forward 0
Core_1_L2C_wq_merged 0
Core_1_L2C_wq_to_cache 3018
Core_1_L2C_wq_full 0

Core_1_L2C_pq_access 32388
Core_1_L2C_pq_forward 0
Core_1_L2C_pq_merged 3837
Core_1_L2C_pq_to_cache 28551
Core_1_L2C_pq_full 0

Core_1_L2C_acc_epochs 304505
Core_1_L2C_acc_level_0 303793
Core_1_L2C_acc_level_1 179
Core_1_L2C_acc_level_2 195
Core_1_L2C_acc_level_3 170
Core_1_L2C_acc_level_4 69
Core_1_L2C_acc_level_5 51
Core_1_L2C_acc_level_6 24
Core_1_L2C_acc_level_7 6
Core_1_L2C_acc_level_8 6
Core_1_L2C_acc_level_9 12

Core_1_LLC_total_access 6156
Core_1_LLC_total_hit 286
Core_1_LLC_total_miss 5870
Core_1_LLC_loads 1877
Core_1_LLC_load_hit 82
Core_1_LLC_load_miss 1795
Core_1_LLC_RFOs 276
Core_1_LLC_RFO_hit 80
Core_1_LLC_RFO_miss 196
Core_1_LLC_prefetches 3517
Core_1_LLC_prefetch_hit 33
Core_1_LLC_prefetch_miss 3484
Core_1_LLC_writebacks 486
Core_1_LLC_writeback_hit 91
Core_1_LLC_writeback_miss 395
Core_1_LLC_prefetch_requested 0
Core_1_LLC_prefetch_dropped 0
Core_1_LLC_prefetch_issued 0
Core_1_LLC_prefetch_filled 1699924
Core_1_LLC_prefetch_useful 100545
Core_1_LLC_prefetch_useless 1557023
Core_1_LLC_prefetch_late 0
Core_1_LLC_average_miss_latency 45557.99046

Core_1_LLC_rq_access 962390
Core_1_LLC_rq_forward 0
Core_1_LLC_rq_merged 0
Core_1_LLC_rq_to_cache 962390
Core_1_LLC_rq_full 0

Core_1_LLC_wq_access 567333
Core_1_LLC_wq_forward 0
Core_1_LLC_wq_merged 0
Core_1_LLC_wq_to_cache 567333
Core_1_LLC_wq_full 0

Core_1_LLC_pq_access 2720934
Core_1_LLC_pq_forward 0
Core_1_LLC_pq_merged 0
Core_1_LLC_pq_to_cache 2720934
Core_1_LLC_pq_full 0

Core_1_LLC_acc_epochs 305638
Core_1_LLC_acc_level_0 261079
Core_1_LLC_acc_level_1 12920
Core_1_LLC_acc_level_2 8311
Core_1_LLC_acc_level_3 3880
Core_1_LLC_acc_level_4 2027
Core_1_LLC_acc_level_5 5164
Core_1_LLC_acc_level_6 1911
Core_1_LLC_acc_level_7 1548
Core_1_LLC_acc_level_8 1168
Core_1_LLC_acc_level_9 7630

Core_1_major_page_fault 0
Core_1_minor_page_fault 567

Core_2_instructions 150000002
Core_2_cycles 98108569
Core_2_IPC 1.52892

Core_2_branch_prediction_accuracy 99.99957
Core_2_branch_MPKI 0.00109
Core_2_average_ROB_occupancy_at_mispredict 112.42431

Core_2_L1D_total_access 25006981
Core_2_L1D_total_hit 25006976
Core_2_L1D_total_miss 5
Core_2_L1D_loads 22547355
Core_2_L1D_load_hit 22547355
Core_2_L1D_load_miss 0
Core_2_L1D_RFOs 2459626
Core_2_L1D_RFO_hit 2459621
Core_2_L1D_RFO_miss 5
Core_2_L1D_prefetches 0
Core_2_L1D_prefetch_hit 0
Core_2_L1D_prefetch_miss 0
Core_2_L1D_writebacks 0
Core_2_L1D_writeback_hit 0
Core_2_L1D_writeback_miss 0
Core_2_L1D_prefetch_requested 0
Core_2_L1D_prefetch_dropped 0
Core_2_L1D_prefetch_issued 0
Core_2_L1D_prefetch_filled 0
Core_2_L1D_prefetch_useful 0
Core_2_L1D_prefetch_useless 0
Core_2_L1D_prefetch_late 0
Core_2_L1D_average_miss_latency 431.20000

Core_2_L1D_rq_access 96534259
Core_2_L1D_rq_forward 0
Core_2_L1D_rq_merged 32052255
Core_2_L1D_rq_to_cache 64482004
Core_2_L1D_rq_full 0

Core_2_L1D_wq_access 7036332
Core_2_L1D_wq_forward 0
Core_2_L1D_wq_merged 0
Core_2_L1D_wq_to_cache 7036332
Core_2_L1D_wq_full 0

Core_2_L1D_pq_access 0
Core_2_L1D_pq_forward 0
Core_2_L1D_pq_merged 0
Core_2_L1D_pq_to_cache 0
Core_2_L1D_pq_full 0

Core_2_L1D_acc_epochs 305549
Core_2_L1D_acc_level_0 305549
Core_2_L1D_acc_level_1 0
Core_2_L1D_acc_level_2 0
Core_2_L1D_acc_level_3 0
Core_2_L1D_acc_level_4 0
Core_2_L1D_acc_level_5 0
Core_2_L1D_acc_level_6 0
Core_2_L1D_acc_level_7 0
Core_2_L1D_acc_level_8 0
Core_2_L1D_acc_level_9 0

Core_2_L1I_total_access 42964512
Core_2_L1I_total_hit 42964506
Core_2_L1I_total_miss 6
Core_2_L1I_loads 42964512
Core_2_L1I_load_hit 42964506
Core_2_L1I_load_miss 6
Core_2_L1I_RFOs 0
Core_2_L1I_RFO_hit 0
Core_2_L1I_RFO_miss 0
Core_2_L1I_prefetches 0
Core_2_L1I_prefetch_hit 0
Core_2_L1I_prefetch_miss 0
Core_2_L1I_writebacks 0
Core_2_L1I_writeback_hit 0
Core_2_L1I_writeback_miss 0
Core_2_L1I_prefetch_requested 0
Core_2_L1I_prefetch_dropped 0
Core_2_L1I_prefetch_issued 0
Core_2_L1I_prefetch_filled 0
Core_2_L1I_prefetch_useful 0
Core_2_L1I_prefetch_useless 0
Core_2_L1I_prefetch_late 0
Core_2_L1I_average_miss_latency 144.16667

Core_2_L1I_rq_access 429113415
Core_2_L1I_rq_forward 0
Core_2_L1I_rq_merged 306213367
Core_2_L1I_rq_to_cache 122900048
Core_2_L1I_rq_full 0

Core_2_L1I_wq_access 0
Core_2_L1I_wq_forward 0
Core_2_L1I_wq_merged 0
Core_2_L1I_wq_to_cache 0
Core_2_L1I_wq_full 0

Core_2_L1I_pq_access 0
Core_2_L1I_pq_forward 0
Core_2_L1I_pq_merged 0
Core_2_L1I_pq_to_cache 0
Core_2_L1I_pq_full 0

Core_2_L1I_acc_epochs 305549
Core_2_L1I_acc_level_0 305549
Core_2_L1I_acc_level_1 0
Core_2_L1I_acc_level_2 0
Core_2_L1I_acc_level_3 0
Core_2_L1I_acc_level_4 0
Core_2_L1I_acc_level_5 0
Core_2_L1I_acc_level_6 0
Core_2_L1I_acc_level_7 0
Core_2_L1I_acc_level_8 0
Core_2_L1I_acc_level_9 0

Core_2_L2C_total_access 20
Core_2_L2C_total_hit 3
Core_2_L2C_total_miss 17
Core_2_L2C_loads 6
Core_2_L2C_load_hit 2
Core_2_L2C_load_miss 4
Core_2_L2C_RFOs 5
Core_2_L2C_RFO_hit 0
Core_2_L2C_RFO_miss 5
Core_2_L2C_prefetches 9
Core_2_L2C_prefetch_hit 1
Core_2_L2C_prefetch_miss 8
Core_2_L2C_writebacks 0
Core_2_L2C_writeback_hit 0
Core_2_L2C_writeback_miss 0
Core_2_L2C_prefetch_requested 364
Core_2_L2C_prefetch_dropped 0
Core_2_L2C_prefetch_issued 364
Core_2_L2C_prefetch_filled 209
Core_2_L2C_prefetch_useful 67
Core_2_L2C_prefetch_useless 0
Core_2_L2C_prefetch_late 21
Core_2_L2C_average_miss_latency 234.41176

Core_2_L2C_rq_access 11
Core_2_L2C_rq_forward 0
Core_2_L2C_rq_merged 0
Core_2_L2C_rq_to_cache 11
Core_2_L2C_rq_full 0

Core_2_L2C_wq_access 0
Core_2_L2C_wq_forward 0
Core_2_L2C_wq_merged 0
Core_2_L2C_wq_to_cache 0
Core_2_L2C_wq_full 0

Core_2_L2C_pq_access 364
Core_2_L2C_pq_forward 0
Core_2_L2C_pq_merged 7
Core_2_L2C_pq_to_cache 357
Core_2_L2C_pq_full 0

Core_2_L2C_acc_epochs 305549
Core_2_L2C_acc_level_0 305542
Core_2_L2C_acc_level_1 5
Core_2_L2C_acc_level_2 1
Core_2_L2C_acc_level_3 1
Core_2_L2C_acc_level_4 0
Core_2_L2C_acc_level_5 0
Core_2_L2C_acc_level_6 0
Core_2_L2C_acc_level_7 0
Core_2_L2C_acc_level_8 0
Core_2_L2C_acc_level_9 0

Core_2_LLC_total_access 17
Core_2_LLC_total_hit 0
Core_2_LLC_total_miss 17
Core_2_LLC_loads 3
Core_2_LLC_load_hit 0
Core_2_LLC_load_miss 3
Core_2_LLC_RFOs 5
Core_2_LLC_RFO_hit 0
Core_2_LLC_RFO_miss 5
Core_2_LLC_prefetches 9
Core_2_LLC_prefetch_hit 0
Core_2_LLC_prefetch_miss 9
Core_2_LLC_writebacks 0
Core_2_LLC_writeback_hit 0
Core_2_LLC_writeback_miss 0
Core_2_LLC_prefetch_requested 0
Core_2_LLC_prefetch_dropped 0
Core_2_LLC_prefetch_issued 0
Core_2_LLC_prefetch_filled 1699924
Core_2_LLC_prefetch_useful 100545
Core_2_LLC_prefetch_useless 1557023
Core_2_LLC_prefetch_late 0
Core_2_LLC_average_miss_latency 15730906.11765

Core_2_LLC_rq_access 962390
Core_2_LLC_rq_forward 0
Core_2_LLC_rq_merged 0
Core_2_LLC_rq_to_cache 962390
Core_2_LLC_rq_full 0

Core_2_LLC_wq_access 567333
Core_2_LLC_wq_forward 0
Core_2_LLC_wq_merged 0
Core_2_LLC_wq_to_cache 567333
Core_2_LLC_wq_full 0

Core_2_LLC_pq_access 2720934
Core_2_LLC_pq_forward 0
Core_2_LLC_pq_merged 0
Core_2_LLC_pq_to_cache 2720934
Core_2_LLC_pq_full 0

Core_2_LLC_acc_epochs 305638
Core_2_LLC_acc_level_0 261079
Core_2_LLC_acc_level_1 12920
Core_2_LLC_acc_level_2 8311
Core_2_LLC_acc_level_3 3880
Core_2_LLC_acc_level_4 2027
Core_2_LLC_acc_level_5 5164
Core_2_LLC_acc_level_6 1911
Core_2_LLC_acc_level_7 1548
Core_2_LLC_acc_level_8 1168
Core_2_LLC_acc_level_9 7630

Core_2_major_page_fault 0
Core_2_minor_page_fault 53

Core_3_instructions 150000000
Core_3_cycles 104711275
Core_3_IPC 1.43251

Core_3_branch_prediction_accuracy 99.99913
Core_3_branch_MPKI 0.00221
Core_3_average_ROB_occupancy_at_mispredict 107.37165

Core_3_L1D_total_access 25529846
Core_3_L1D_total_hit 25529825
Core_3_L1D_total_miss 21
Core_3_L1D_loads 23653252
Core_3_L1D_load_hit 23653231
Core_3_L1D_load_miss 21
Core_3_L1D_RFOs 1876594
Core_3_L1D_RFO_hit 1876594
Core_3_L1D_RFO_miss 0
Core_3_L1D_prefetches 0
Core_3_L1D_prefetch_hit 0
Core_3_L1D_prefetch_miss 0
Core_3_L1D_writebacks 0
Core_3_L1D_writeback_hit 0
Core_3_L1D_writeback_miss 0
Core_3_L1D_prefetch_requested 0
Core_3_L1D_prefetch_dropped 0
Core_3_L1D_prefetch_issued 0
Core_3_L1D_prefetch_filled 0
Core_3_L1D_prefetch_useful 0
Core_3_L1D_prefetch_useless 0
Core_3_L1D_prefetch_late 0
Core_3_L1D_average_miss_latency 165.09524

Core_3_L1D_rq_access 99575421
Core_3_L1D_rq_forward 0
Core_3_L1D_rq_merged 36280486
Core_3_L1D_rq_to_cache 63294935
Core_3_L1D_rq_full 0

Core_3_L1D_wq_access 5032064
Core_3_L1D_wq_forward 0
Core_3_L1D_wq_merged 11
Core_3_L1D_wq_to_cache 5032053
Core_3_L1D_wq_full 0

Core_3_L1D_pq_access 0
Core_3_L1D_pq_forward 0
Core_3_L1D_pq_merged 0
Core_3_L1D_pq_to_cache 0
Core_3_L1D_pq_full 0

Core_3_L1D_acc_epochs 305415
Core_3_L1D_acc_level_0 305415
Core_3_L1D_acc_level_1 0
Core_3_L1D_acc_level_2 0
Core_3_L1D_acc_level_3 0
Core_3_L1D_acc_level_4 0
Core_3_L1D_acc_level_5 0
Core_3_L1D_acc_level_6 0
Core_3_L1D_acc_level_7 0
Core_3_L1D_acc_level_8 0
Core_3_L1D_acc_level_9 0

Core_3_L1I_total_access 45987961
Core_3_L1I_total_hit 45987927
Core_3_L1I_total_miss 34
Core_3_L1I_loads 45987961
Core_3_L1I_load_hit 45987927
Core_3_L1I_load_miss 34
Core_3_L1I_RFOs 0
Core_3_L1I_RFO_hit 0
Core_3_L1I_RFO_miss 0
Core_3_L1I_prefetches 0
Core_3_L1I_prefetch_hit 0
Core_3_L1I_prefetch_miss 0
Core_3_L1I_writebacks 0
Core_3_L1I_writeback_hit 0
Core_3_L1I_writeback_miss 0
Core_3_L1I_prefetch_requested 0
Core_3_L1I_prefetch_dropped 0
Core_3_L1I_prefetch_issued 0
Core_3_L1I_prefetch_filled 0
Core_3_L1I_prefetch_useful 0
Core_3_L1I_prefetch_useless 0
Core_3_L1I_prefetch_late 0
Core_3_L1I_average_miss_latency 113.05882

Core_3_L1I_rq_access 402167237
Core_3_L1I_rq_forward 0
Core_3_L1I_rq_merged 279111683
Core_3_L1I_rq_to_cache 123055554
Core_3_L1I_rq_full 0

Core_3_L1I_wq_access 0
Core_3_L1I_wq_forward 0
Core_3_L1I_wq_merged 0
Core_3_L1I_wq_to_cache 0
Core_3_L1I_wq_full 0

Core_3_L1I_pq_access 0
Core_3_L1I_pq_forward 0
Core_3_L1I_pq_merged 0
Core_3_L1I_pq_to_cache 0
Core_3_L1I_pq_full 0

Core_3_L1I_acc_epochs 305415
Core_3_L1I_acc_level_0 305415
Core_3_L1I_acc_level_1 0
Core_3_L1I_acc_level_2 0
Core_3_L1I_acc_level_3 0
Core_3_L1I_acc_level_4 0
Core_3_L1I_acc_level_5 0
Core_3_L1I_acc_level_6 0
Core_3_L1I_acc_level_7 0
Core_3_L1I_acc_level_8 0
Core_3_L1I_acc_level_9 0

Core_3_L2C_total_access 173
Core_3_L2C_total_hit 160
Core_3_L2C_total_miss 13
Core_3_L2C_loads 55
Core_3_L2C_load_hit 51
Core_3_L2C_load_miss 4
Core_3_L2C_RFOs 0
Core_3_L2C_RFO_hit 0
Core_3_L2C_RFO_miss 0
Core_3_L2C_prefetches 108
Core_3_L2C_prefetch_hit 99
Core_3_L2C_prefetch_miss 9
Core_3_L2C_writebacks 10
Core_3_L2C_writeback_hit 10
Core_3_L2C_writeback_miss 0
Core_3_L2C_prefetch_requested 1442
Core_3_L2C_prefetch_dropped 0
Core_3_L2C_prefetch_issued 1442
Core_3_L2C_prefetch_filled 635
Core_3_L2C_prefetch_useful 258
Core_3_L2C_prefetch_useless 0
Core_3_L2C_prefetch_late 39
Core_3_L2C_average_miss_latency 243.00000

Core_3_L2C_rq_access 159
Core_3_L2C_rq_forward 0
Core_3_L2C_rq_merged 0
Core_3_L2C_rq_to_cache 159
Core_3_L2C_rq_full 0

Core_3_L2C_wq_access 36
Core_3_L2C_wq_forward 0
Core_3_L2C_wq_merged 0
Core_3_L2C_wq_to_cache 36
Core_3_L2C_wq_full 0

Core_3_L2C_pq_access 1442
Core_3_L2C_pq_forward 0
Core_3_L2C_pq_merged 37
Core_3_L2C_pq_to_cache 1405
Core_3_L2C_pq_full 0

Core_3_L2C_acc_epochs 305415
Core_3_L2C_acc_level_0 305394
Core_3_L2C_acc_level_1 8
Core_3_L2C_acc_level_2 4
Core_3_L2C_acc_level_3 4
Core_3_L2C_acc_level_4 3
Core_3_L2C_acc_level_5 0
Core_3_L2C_acc_level_6 2
Core_3_L2C_acc_level_7 0
Core_3_L2C_acc_level_8 0
Core_3_L2C_acc_level_9 0

Core_3_LLC_total_access 13
Core_3_LLC_total_hit 0
Core_3_LLC_total_miss 13
Core_3_LLC_loads 4
Core_3_LLC_load_hit 0
Core_3_LLC_load_miss 4
Core_3_LLC_RFOs 0
Core_3_LLC_RFO_hit 0
Core_3_LLC_RFO_miss 0
Core_3_LLC_prefetches 9
Core_3_LLC_prefetch_hit 0
Core_3_LLC_prefetch_miss 9
Core_3_LLC_writebacks 0
Core_3_LLC_writeback_hit 0
Core_3_LLC_writeback_miss 0
Core_3_LLC_prefetch_requested 0
Core_3_LLC_prefetch_dropped 0
Core_3_LLC_prefetch_issued 0
Core_3_LLC_prefetch_filled 1699924
Core_3_LLC_prefetch_useful 100545
Core_3_LLC_prefetch_useless 1557023
Core_3_LLC_prefetch_late 0
Core_3_LLC_average_miss_latency 20571184.92308

Core_3_LLC_rq_access 962390
Core_3_LLC_rq_forward 0
Core_3_LLC_rq_merged 0
Core_3_LLC_rq_to_cache 962390
Core_3_LLC_rq_full 0

Core_3_LLC_wq_access 567333
Core_3_LLC_wq_forward 0
Core_3_LLC_wq_merged 0
Core_3_LLC_wq_to_cache 567333
Core_3_LLC_wq_full 0

Core_3_LLC_pq_access 2720934
Core_3_LLC_pq_forward 0
Core_3_LLC_pq_merged 0
Core_3_LLC_pq_to_cache 2720934
Core_3_LLC_pq_full 0

Core_3_LLC_acc_epochs 305638
Core_3_LLC_acc_level_0 261079
Core_3_LLC_acc_level_1 12920
Core_3_LLC_acc_level_2 8311
Core_3_LLC_acc_level_3 3880
Core_3_LLC_acc_level_4 2027
Core_3_LLC_acc_level_5 5164
Core_3_LLC_acc_level_6 1911
Core_3_LLC_acc_level_7 1548
Core_3_LLC_acc_level_8 1168
Core_3_LLC_acc_level_9 7630

Core_3_major_page_fault 0
Core_3_minor_page_fault 123

[CoopPythia] Stats:
 - Useful prefetches: 2259394
 - IPC Level: 0
 - Bandwidth Level: 0
 - Accuracy Level: 0
[CoopPythia] Stats:
 - Useful prefetches: 2259394
 - IPC Level: 0
 - Bandwidth Level: 0
 - Accuracy Level: 0
[CoopPythia] Stats:
 - Useful prefetches: 2259394
 - IPC Level: 0
 - Bandwidth Level: 0
 - Accuracy Level: 0
[CoopPythia] Stats:
 - Useful prefetches: 2259394
 - IPC Level: 0
 - Bandwidth Level: 0
 - Accuracy Level: 0
Channel_0_RQ_row_buffer_hit 328672
Channel_0_RQ_row_buffer_miss 523276
Channel_0_WQ_row_buffer_hit 77468
Channel_0_WQ_row_buffer_miss 186189
Channel_0_WQ_full 0
Channel_0_dbus_congested 278835

Channel_1_RQ_row_buffer_hit 326880
Channel_1_RQ_row_buffer_miss 524802
Channel_1_WQ_row_buffer_hit 77930
Channel_1_WQ_row_buffer_miss 185493
Channel_1_WQ_full 0
Channel_1_dbus_congested 278128

avg_congested_cycle 9

DRAM_bw_pochs 1222552
DRAM_bw_level_0 1157998
DRAM_bw_level_1 51988
DRAM_bw_level_2 11412
DRAM_bw_level_3 1154
