*************************************************
   ChampSim Multicore Out-of-Order Simulator
   Last compiled: Apr 16 2025 04:49:12
*************************************************
parsing config file: /pref/Pythia/config/coop_pythia.ini

trace_0 /pref/Pythia/NUTCH/traces/nutch_phase0_core0.trace.xz
trace_1 /pref/Pythia/NUTCH/traces/nutch_phase0_core1.trace.xz
trace_2 /pref/Pythia/NUTCH/traces/nutch_phase0_core2.trace.xz
trace_3 /pref/Pythia/NUTCH/traces/nutch_phase0_core3.trace.xz
CPU 0 Bimodal branch predictor
CPU 1 Bimodal branch predictor
CPU 2 Bimodal branch predictor
CPU 3 Bimodal branch predictor
warmup_instructions 50000000
simulation_instructions 150000000
champsim_seed 7150
measure_ipc 0
measure_ipc_epoch 1000
measure_dram_bw 1
measure_dram_bw_epoch 256
measure_cache_acc 1
measure_cache_acc_epoch 1024
l1d_perfect 0
l2c_perfect 0
llc_perfect 0
l1d_semi_perfect 0
l2c_semi_perfect 0
llc_semi_perfect 0
semi_perfect_cache_page_buffer_size 64

num_cpus 4
cpu_freq 4000
dram_io_freq 2400
page_size 4096
block_size 64
max_read_per_cycle 8
max_fill_per_cycle 1
dram_channels 2
log2_dram_channels 1
dram_ranks 1
dram_banks 8
dram_rows 65536
dram_columns 128
dram_row_size 8
dram_size 8192
dram_pages 2097152
======= Prefetcher Knob Settings =======
coop_enable_multicore: 1
coop_enable_bw_throttling: 1
coop_rl_enable: 1
coop_rl_ipc_threshold: 
coop_rl_alpha_high_ipc: 0.1
coop_rl_alpha_low_ipc: 0.02
coop_rl_bw_threshold: 2
========================================
fetch_width 6
decode_width 6
exec_width 4
lq_width 2
sq_width 2
retire_width 4
scheduler_size 128
branch_mispredict_penalty 20
rob_size 256
lq_size 72
sq_size 56
num_instr_destinations_sparc 4
num_instr_destinations 2
num_instr_sources 4

itlb_set 16
itlb_way 8
itlb_rq_size 16
itlb_wq_size 16
itlb_pq_size 0
itlb_mshr_size 8
itlb_latency 1

dtlb_set 16
dtlb_way 4
dtlb_rq_size 16
dtlb_wq_size 16
dtlb_pq_size 0
dtlb_mshr_size 8
dtlb_latency 1

stlb_set 128
stlb_way 12
stlb_rq_size 32
stlb_wq_size 32
stlb_pq_size 0
stlb_mshr_size 16
stlb_latency 8

l1i_size 32
l1i_set 64
l1i_way 8
l1i_rq_size 64
l1i_wq_size 64
l1i_pq_size 8
l1i_mshr_size 8
l1i_latency 1

l1d_size 32
l1d_set 64
l1d_way 8
l1d_rq_size 64
l1d_wq_size 64
l1d_pq_size 16
l1d_mshr_size 16
l1d_latency 4

l2c_size 256
l2c_set 512
l2c_way 8
l2c_rq_size 64
l2c_wq_size 32
l2c_pq_size 64
l2c_mshr_size 64
l2c_latency 10

llc_size 8192
llc_set 8192
llc_way 16
llc_rq_size 256
llc_wq_size 256
llc_pq_size 128
llc_mshr_size 256
llc_latency 20

dram_channel_width 8
dram_wq_size 64
dram_rq_size 64
tRP 15
tRCD 15
tCAS 12.5
dram_dbus_turn_around_time 30
dram_write_high_wm 56
dram_write_low_wm 48
min_dram_writes_per_switch 16
dram_mtps 2400
dram_dbus_return_time 13

[CoopPythia Config]
 - Adaptive Alpha: Enabled
 - Multicore Mode: Enabled
 - BW Throttling: Enabled
 - IPC Threshold: 5
 - BW Threshold: 2

Heartbeat CPU  1 instructions:    1000000 cycles:     567005 heartbeat IPC: 1.76365 cumulative IPC: 1.76365 (Simulation time: 0 hr 0 min 4 sec) 
Heartbeat CPU  3 instructions:    1000002 cycles:     612552 heartbeat IPC: 1.63252 cumulative IPC: 1.63252 (Simulation time: 0 hr 0 min 4 sec) 
Heartbeat CPU  0 instructions:    1000000 cycles:     624729 heartbeat IPC: 1.60069 cumulative IPC: 1.60069 (Simulation time: 0 hr 0 min 4 sec) 
Heartbeat CPU  2 instructions:    1000001 cycles:     730823 heartbeat IPC: 1.36832 cumulative IPC: 1.36832 (Simulation time: 0 hr 0 min 5 sec) 
Heartbeat CPU  1 instructions:    2000003 cycles:    1111383 heartbeat IPC: 1.83696 cumulative IPC: 1.79956 (Simulation time: 0 hr 0 min 8 sec) 
Heartbeat CPU  0 instructions:    2000001 cycles:    1304547 heartbeat IPC: 1.47098 cumulative IPC: 1.53310 (Simulation time: 0 hr 0 min 10 sec) 
Heartbeat CPU  2 instructions:    2000002 cycles:    1309929 heartbeat IPC: 1.72680 cumulative IPC: 1.52680 (Simulation time: 0 hr 0 min 10 sec) 
Heartbeat CPU  3 instructions:    2000001 cycles:    1349299 heartbeat IPC: 1.35732 cumulative IPC: 1.48225 (Simulation time: 0 hr 0 min 10 sec) 
Heartbeat CPU  1 instructions:    3000002 cycles:    1635927 heartbeat IPC: 1.90642 cumulative IPC: 1.83382 (Simulation time: 0 hr 0 min 13 sec) 
Heartbeat CPU  2 instructions:    3000001 cycles:    1897152 heartbeat IPC: 1.70293 cumulative IPC: 1.58132 (Simulation time: 0 hr 0 min 15 sec) 
Heartbeat CPU  0 instructions:    3000002 cycles:    1911093 heartbeat IPC: 1.64868 cumulative IPC: 1.56978 (Simulation time: 0 hr 0 min 15 sec) 
Heartbeat CPU  3 instructions:    3000001 cycles:    1935860 heartbeat IPC: 1.70485 cumulative IPC: 1.54970 (Simulation time: 0 hr 0 min 15 sec) 
Heartbeat CPU  1 instructions:    4000000 cycles:    2157970 heartbeat IPC: 1.91555 cumulative IPC: 1.85359 (Simulation time: 0 hr 0 min 17 sec) 
Heartbeat CPU  2 instructions:    4000000 cycles:    2476861 heartbeat IPC: 1.72500 cumulative IPC: 1.61495 (Simulation time: 0 hr 0 min 19 sec) 
Heartbeat CPU  3 instructions:    4000000 cycles:    2510453 heartbeat IPC: 1.74036 cumulative IPC: 1.59334 (Simulation time: 0 hr 0 min 20 sec) 
Heartbeat CPU  0 instructions:    4000000 cycles:    2542642 heartbeat IPC: 1.58341 cumulative IPC: 1.57317 (Simulation time: 0 hr 0 min 20 sec) 
Heartbeat CPU  1 instructions:    5000000 cycles:    2848216 heartbeat IPC: 1.44876 cumulative IPC: 1.75548 (Simulation time: 0 hr 0 min 23 sec) 
Heartbeat CPU  2 instructions:    5000001 cycles:    3052934 heartbeat IPC: 1.73589 cumulative IPC: 1.63777 (Simulation time: 0 hr 0 min 25 sec) 
Heartbeat CPU  3 instructions:    5000001 cycles:    3057174 heartbeat IPC: 1.82909 cumulative IPC: 1.63550 (Simulation time: 0 hr 0 min 25 sec) 
Heartbeat CPU  0 instructions:    5000001 cycles:    3196135 heartbeat IPC: 1.53024 cumulative IPC: 1.56439 (Simulation time: 0 hr 0 min 26 sec) 
Heartbeat CPU  1 instructions:    6000001 cycles:    3483341 heartbeat IPC: 1.57449 cumulative IPC: 1.72248 (Simulation time: 0 hr 0 min 28 sec) 
Heartbeat CPU  3 instructions:    6000003 cycles:    3587989 heartbeat IPC: 1.88390 cumulative IPC: 1.67225 (Simulation time: 0 hr 0 min 29 sec) 
Heartbeat CPU  2 instructions:    6000001 cycles:    3774829 heartbeat IPC: 1.38524 cumulative IPC: 1.58948 (Simulation time: 0 hr 0 min 30 sec) 
Heartbeat CPU  0 instructions:    6000001 cycles:    3785507 heartbeat IPC: 1.69672 cumulative IPC: 1.58499 (Simulation time: 0 hr 0 min 30 sec) 
Heartbeat CPU  1 instructions:    7000000 cycles:    4008805 heartbeat IPC: 1.90308 cumulative IPC: 1.74616 (Simulation time: 0 hr 0 min 32 sec) 
Heartbeat CPU  3 instructions:    7000003 cycles:    4102455 heartbeat IPC: 1.94376 cumulative IPC: 1.70630 (Simulation time: 0 hr 0 min 33 sec) 
Heartbeat CPU  2 instructions:    7000000 cycles:    4290749 heartbeat IPC: 1.93828 cumulative IPC: 1.63142 (Simulation time: 0 hr 0 min 35 sec) 
Heartbeat CPU  0 instructions:    7000002 cycles:    4383532 heartbeat IPC: 1.67217 cumulative IPC: 1.59689 (Simulation time: 0 hr 0 min 35 sec) 
Heartbeat CPU  3 instructions:    8000000 cycles:    4613656 heartbeat IPC: 1.95617 cumulative IPC: 1.73398 (Simulation time: 0 hr 0 min 37 sec) 
Heartbeat CPU  1 instructions:    8000000 cycles:    4780659 heartbeat IPC: 1.29558 cumulative IPC: 1.67341 (Simulation time: 0 hr 0 min 38 sec) 
Heartbeat CPU  2 instructions:    8000000 cycles:    4890957 heartbeat IPC: 1.66609 cumulative IPC: 1.63567 (Simulation time: 0 hr 0 min 39 sec) 
Heartbeat CPU  0 instructions:    8000000 cycles:    4989280 heartbeat IPC: 1.65085 cumulative IPC: 1.60344 (Simulation time: 0 hr 0 min 40 sec) 
Heartbeat CPU  3 instructions:    9000000 cycles:    5135091 heartbeat IPC: 1.91778 cumulative IPC: 1.75265 (Simulation time: 0 hr 0 min 41 sec) 
Heartbeat CPU  1 instructions:    9000001 cycles:    5254317 heartbeat IPC: 2.11123 cumulative IPC: 1.71288 (Simulation time: 0 hr 0 min 42 sec) 
Heartbeat CPU  2 instructions:    9000001 cycles:    5492802 heartbeat IPC: 1.66156 cumulative IPC: 1.63851 (Simulation time: 0 hr 0 min 44 sec) 
Heartbeat CPU  0 instructions:    9000000 cycles:    5594130 heartbeat IPC: 1.65330 cumulative IPC: 1.60883 (Simulation time: 0 hr 0 min 45 sec) 
Heartbeat CPU  3 instructions:   10000002 cycles:    5677843 heartbeat IPC: 1.84247 cumulative IPC: 1.76123 (Simulation time: 0 hr 0 min 46 sec) 
Heartbeat CPU  1 instructions:   10000001 cycles:    5777195 heartbeat IPC: 1.91249 cumulative IPC: 1.73094 (Simulation time: 0 hr 0 min 47 sec) 
Heartbeat CPU  2 instructions:   10000002 cycles:    6096883 heartbeat IPC: 1.65541 cumulative IPC: 1.64018 (Simulation time: 0 hr 0 min 49 sec) 
Heartbeat CPU  0 instructions:   10000001 cycles:    6197761 heartbeat IPC: 1.65664 cumulative IPC: 1.61349 (Simulation time: 0 hr 0 min 50 sec) 
Heartbeat CPU  3 instructions:   11000002 cycles:    6251203 heartbeat IPC: 1.74410 cumulative IPC: 1.75966 (Simulation time: 0 hr 0 min 50 sec) 
Heartbeat CPU  1 instructions:   11000002 cycles:    6498486 heartbeat IPC: 1.38640 cumulative IPC: 1.69270 (Simulation time: 0 hr 0 min 52 sec) 
Heartbeat CPU  2 instructions:   11000000 cycles:    6697856 heartbeat IPC: 1.66396 cumulative IPC: 1.64232 (Simulation time: 0 hr 0 min 54 sec) 
Heartbeat CPU  3 instructions:   12000000 cycles:    6798894 heartbeat IPC: 1.82584 cumulative IPC: 1.76499 (Simulation time: 0 hr 0 min 55 sec) 
Heartbeat CPU  0 instructions:   11000000 cycles:    6800546 heartbeat IPC: 1.65896 cumulative IPC: 1.61752 (Simulation time: 0 hr 0 min 55 sec) 
Heartbeat CPU  1 instructions:   12000000 cycles:    7071959 heartbeat IPC: 1.74376 cumulative IPC: 1.69684 (Simulation time: 0 hr 0 min 57 sec) 
Heartbeat CPU  2 instructions:   12000000 cycles:    7300669 heartbeat IPC: 1.65889 cumulative IPC: 1.64368 (Simulation time: 0 hr 0 min 58 sec) 
Heartbeat CPU  3 instructions:   13000003 cycles:    7333043 heartbeat IPC: 1.87214 cumulative IPC: 1.77280 (Simulation time: 0 hr 0 min 59 sec) 
Heartbeat CPU  0 instructions:   12000000 cycles:    7423502 heartbeat IPC: 1.60525 cumulative IPC: 1.61649 (Simulation time: 0 hr 0 min 59 sec) 
Heartbeat CPU  1 instructions:   13000000 cycles:    7679752 heartbeat IPC: 1.64530 cumulative IPC: 1.69276 (Simulation time: 0 hr 1 min 2 sec) 
Heartbeat CPU  3 instructions:   14000001 cycles:    7849625 heartbeat IPC: 1.93580 cumulative IPC: 1.78352 (Simulation time: 0 hr 1 min 3 sec) 
Heartbeat CPU  2 instructions:   13000003 cycles:    7926324 heartbeat IPC: 1.59833 cumulative IPC: 1.64010 (Simulation time: 0 hr 1 min 4 sec) 
Heartbeat CPU  0 instructions:   13000000 cycles:    7967667 heartbeat IPC: 1.83768 cumulative IPC: 1.63159 (Simulation time: 0 hr 1 min 4 sec) 
Heartbeat CPU  1 instructions:   14000001 cycles:    8289005 heartbeat IPC: 1.64136 cumulative IPC: 1.68898 (Simulation time: 0 hr 1 min 7 sec) 
Heartbeat CPU  3 instructions:   15000000 cycles:    8362739 heartbeat IPC: 1.94888 cumulative IPC: 1.79367 (Simulation time: 0 hr 1 min 8 sec) 
Heartbeat CPU  0 instructions:   14000003 cycles:    8470676 heartbeat IPC: 1.98804 cumulative IPC: 1.65276 (Simulation time: 0 hr 1 min 8 sec) 
Heartbeat CPU  2 instructions:   14000000 cycles:    8629500 heartbeat IPC: 1.42211 cumulative IPC: 1.62234 (Simulation time: 0 hr 1 min 10 sec) 
Heartbeat CPU  3 instructions:   16000000 cycles:    8872835 heartbeat IPC: 1.96042 cumulative IPC: 1.80326 (Simulation time: 0 hr 1 min 12 sec) 
Heartbeat CPU  1 instructions:   15000000 cycles:    8897929 heartbeat IPC: 1.64224 cumulative IPC: 1.68579 (Simulation time: 0 hr 1 min 12 sec) 
Heartbeat CPU  0 instructions:   15000001 cycles:    9033834 heartbeat IPC: 1.77570 cumulative IPC: 1.66042 (Simulation time: 0 hr 1 min 13 sec) 
Heartbeat CPU  2 instructions:   15000002 cycles:    9146622 heartbeat IPC: 1.93378 cumulative IPC: 1.63995 (Simulation time: 0 hr 1 min 14 sec) 
Heartbeat CPU  3 instructions:   17000003 cycles:    9396853 heartbeat IPC: 1.90834 cumulative IPC: 1.80912 (Simulation time: 0 hr 1 min 17 sec) 
Heartbeat CPU  1 instructions:   16000000 cycles:    9436696 heartbeat IPC: 1.85609 cumulative IPC: 1.69551 (Simulation time: 0 hr 1 min 17 sec) 
Heartbeat CPU  0 instructions:   16000000 cycles:    9652032 heartbeat IPC: 1.61760 cumulative IPC: 1.65768 (Simulation time: 0 hr 1 min 19 sec) 
Heartbeat CPU  2 instructions:   16000000 cycles:    9763185 heartbeat IPC: 1.62189 cumulative IPC: 1.63881 (Simulation time: 0 hr 1 min 19 sec) 
Heartbeat CPU  3 instructions:   18000001 cycles:    9991187 heartbeat IPC: 1.68255 cumulative IPC: 1.80159 (Simulation time: 0 hr 1 min 21 sec) 
Heartbeat CPU  1 instructions:   17000002 cycles:   10184993 heartbeat IPC: 1.33637 cumulative IPC: 1.66912 (Simulation time: 0 hr 1 min 22 sec) 
Heartbeat CPU  0 instructions:   17000001 cycles:   10260248 heartbeat IPC: 1.64415 cumulative IPC: 1.65688 (Simulation time: 0 hr 1 min 22 sec) 
Heartbeat CPU  2 instructions:   17000000 cycles:   10374648 heartbeat IPC: 1.63542 cumulative IPC: 1.63861 (Simulation time: 0 hr 1 min 23 sec) 
Heartbeat CPU  3 instructions:   19000001 cycles:   10649504 heartbeat IPC: 1.51903 cumulative IPC: 1.78412 (Simulation time: 0 hr 1 min 25 sec) 
Heartbeat CPU  1 instructions:   18000003 cycles:   10656051 heartbeat IPC: 2.12288 cumulative IPC: 1.68918 (Simulation time: 0 hr 1 min 25 sec) 
Heartbeat CPU  0 instructions:   18000001 cycles:   10886229 heartbeat IPC: 1.59749 cumulative IPC: 1.65347 (Simulation time: 0 hr 1 min 27 sec) 
Heartbeat CPU  2 instructions:   18000003 cycles:   10945226 heartbeat IPC: 1.75261 cumulative IPC: 1.64455 (Simulation time: 0 hr 1 min 28 sec) 
Heartbeat CPU  3 instructions:   20000000 cycles:   11204027 heartbeat IPC: 1.80335 cumulative IPC: 1.78507 (Simulation time: 0 hr 1 min 30 sec) 
Heartbeat CPU  1 instructions:   19000003 cycles:   11235738 heartbeat IPC: 1.72507 cumulative IPC: 1.69103 (Simulation time: 0 hr 1 min 30 sec) 
Heartbeat CPU  0 instructions:   19000002 cycles:   11423767 heartbeat IPC: 1.86034 cumulative IPC: 1.66320 (Simulation time: 0 hr 1 min 31 sec) 
Heartbeat CPU  2 instructions:   19000002 cycles:   11544265 heartbeat IPC: 1.66934 cumulative IPC: 1.64584 (Simulation time: 0 hr 1 min 32 sec) 
Heartbeat CPU  3 instructions:   21000002 cycles:   11803674 heartbeat IPC: 1.66765 cumulative IPC: 1.77911 (Simulation time: 0 hr 1 min 34 sec) 
Heartbeat CPU  1 instructions:   20000000 cycles:   11840388 heartbeat IPC: 1.65384 cumulative IPC: 1.68913 (Simulation time: 0 hr 1 min 34 sec) 
Heartbeat CPU  0 instructions:   20000000 cycles:   12051508 heartbeat IPC: 1.59301 cumulative IPC: 1.65954 (Simulation time: 0 hr 1 min 36 sec) 
Heartbeat CPU  2 instructions:   20000000 cycles:   12149975 heartbeat IPC: 1.65095 cumulative IPC: 1.64609 (Simulation time: 0 hr 1 min 36 sec) 
Heartbeat CPU  3 instructions:   22000002 cycles:   12406786 heartbeat IPC: 1.65807 cumulative IPC: 1.77322 (Simulation time: 0 hr 1 min 38 sec) 
Heartbeat CPU  1 instructions:   21000002 cycles:   12444517 heartbeat IPC: 1.65528 cumulative IPC: 1.68749 (Simulation time: 0 hr 1 min 39 sec) 
Heartbeat CPU  0 instructions:   21000002 cycles:   12630481 heartbeat IPC: 1.72720 cumulative IPC: 1.66264 (Simulation time: 0 hr 1 min 40 sec) 
Heartbeat CPU  2 instructions:   21000001 cycles:   12749922 heartbeat IPC: 1.66682 cumulative IPC: 1.64707 (Simulation time: 0 hr 1 min 41 sec) 
Heartbeat CPU  3 instructions:   23000002 cycles:   13003989 heartbeat IPC: 1.67447 cumulative IPC: 1.76869 (Simulation time: 0 hr 1 min 43 sec) 
Heartbeat CPU  1 instructions:   22000000 cycles:   13054061 heartbeat IPC: 1.64057 cumulative IPC: 1.68530 (Simulation time: 0 hr 1 min 43 sec) 
Heartbeat CPU  0 instructions:   22000003 cycles:   13220469 heartbeat IPC: 1.69495 cumulative IPC: 1.66409 (Simulation time: 0 hr 1 min 44 sec) 
Heartbeat CPU  2 instructions:   22000003 cycles:   13348316 heartbeat IPC: 1.67114 cumulative IPC: 1.64815 (Simulation time: 0 hr 1 min 45 sec) 
Heartbeat CPU  3 instructions:   24000000 cycles:   13601582 heartbeat IPC: 1.67338 cumulative IPC: 1.76450 (Simulation time: 0 hr 1 min 47 sec) 
Heartbeat CPU  1 instructions:   23000000 cycles:   13659627 heartbeat IPC: 1.65135 cumulative IPC: 1.68379 (Simulation time: 0 hr 1 min 47 sec) 
Heartbeat CPU  0 instructions:   23000003 cycles:   13824339 heartbeat IPC: 1.65599 cumulative IPC: 1.66373 (Simulation time: 0 hr 1 min 48 sec) 
Heartbeat CPU  2 instructions:   23000001 cycles:   13948488 heartbeat IPC: 1.66619 cumulative IPC: 1.64892 (Simulation time: 0 hr 1 min 49 sec) 
Heartbeat CPU  3 instructions:   25000001 cycles:   14199099 heartbeat IPC: 1.67359 cumulative IPC: 1.76068 (Simulation time: 0 hr 1 min 51 sec) 
Heartbeat CPU  1 instructions:   24000000 cycles:   14285607 heartbeat IPC: 1.59750 cumulative IPC: 1.68001 (Simulation time: 0 hr 1 min 52 sec) 
Heartbeat CPU  0 instructions:   24000000 cycles:   14423711 heartbeat IPC: 1.66841 cumulative IPC: 1.66393 (Simulation time: 0 hr 1 min 53 sec) 
Heartbeat CPU  2 instructions:   24000000 cycles:   14559903 heartbeat IPC: 1.63555 cumulative IPC: 1.64836 (Simulation time: 0 hr 1 min 54 sec) 
Heartbeat CPU  3 instructions:   26000001 cycles:   14812445 heartbeat IPC: 1.63040 cumulative IPC: 1.75528 (Simulation time: 0 hr 1 min 56 sec) 
Heartbeat CPU  1 instructions:   25000001 cycles:   14898443 heartbeat IPC: 1.63176 cumulative IPC: 1.67803 (Simulation time: 0 hr 1 min 56 sec) 
Heartbeat CPU  0 instructions:   25000000 cycles:   15021382 heartbeat IPC: 1.67316 cumulative IPC: 1.66429 (Simulation time: 0 hr 1 min 57 sec) 
Heartbeat CPU  2 instructions:   25000002 cycles:   15207874 heartbeat IPC: 1.54328 cumulative IPC: 1.64389 (Simulation time: 0 hr 1 min 59 sec) 
Heartbeat CPU  3 instructions:   27000001 cycles:   15407487 heartbeat IPC: 1.68055 cumulative IPC: 1.75239 (Simulation time: 0 hr 2 min 0 sec) 
Heartbeat CPU  1 instructions:   26000001 cycles:   15505866 heartbeat IPC: 1.64630 cumulative IPC: 1.67678 (Simulation time: 0 hr 2 min 1 sec) 
Heartbeat CPU  0 instructions:   26000002 cycles:   15621783 heartbeat IPC: 1.66556 cumulative IPC: 1.66434 (Simulation time: 0 hr 2 min 2 sec) 
Heartbeat CPU  2 instructions:   26000002 cycles:   15806853 heartbeat IPC: 1.66951 cumulative IPC: 1.64486 (Simulation time: 0 hr 2 min 3 sec) 
Heartbeat CPU  3 instructions:   28000000 cycles:   15985077 heartbeat IPC: 1.73133 cumulative IPC: 1.75163 (Simulation time: 0 hr 2 min 5 sec) 
Heartbeat CPU  1 instructions:   27000000 cycles:   16044954 heartbeat IPC: 1.85498 cumulative IPC: 1.68277 (Simulation time: 0 hr 2 min 5 sec) 
Heartbeat CPU  0 instructions:   27000002 cycles:   16245185 heartbeat IPC: 1.60410 cumulative IPC: 1.66203 (Simulation time: 0 hr 2 min 7 sec) 
Heartbeat CPU  2 instructions:   27000000 cycles:   16365507 heartbeat IPC: 1.79001 cumulative IPC: 1.64981 (Simulation time: 0 hr 2 min 8 sec) 
Heartbeat CPU  3 instructions:   29000001 cycles:   16607468 heartbeat IPC: 1.60671 cumulative IPC: 1.74620 (Simulation time: 0 hr 2 min 10 sec) 
Heartbeat CPU  1 instructions:   28000000 cycles:   16709420 heartbeat IPC: 1.50497 cumulative IPC: 1.67570 (Simulation time: 0 hr 2 min 10 sec) 
Heartbeat CPU  0 instructions:   28000000 cycles:   16856170 heartbeat IPC: 1.63670 cumulative IPC: 1.66111 (Simulation time: 0 hr 2 min 12 sec) 
Heartbeat CPU  2 instructions:   28000000 cycles:   16970258 heartbeat IPC: 1.65357 cumulative IPC: 1.64995 (Simulation time: 0 hr 2 min 12 sec) 
Heartbeat CPU  3 instructions:   30000001 cycles:   17147970 heartbeat IPC: 1.85013 cumulative IPC: 1.74948 (Simulation time: 0 hr 2 min 14 sec) 
Heartbeat CPU  1 instructions:   29000002 cycles:   17248780 heartbeat IPC: 1.85405 cumulative IPC: 1.68128 (Simulation time: 0 hr 2 min 14 sec) 
Heartbeat CPU  0 instructions:   29000001 cycles:   17453988 heartbeat IPC: 1.67275 cumulative IPC: 1.66151 (Simulation time: 0 hr 2 min 16 sec) 
Heartbeat CPU  2 instructions:   29000000 cycles:   17573120 heartbeat IPC: 1.65875 cumulative IPC: 1.65025 (Simulation time: 0 hr 2 min 17 sec) 
Heartbeat CPU  3 instructions:   31000001 cycles:   17705074 heartbeat IPC: 1.79500 cumulative IPC: 1.75091 (Simulation time: 0 hr 2 min 18 sec) 
Heartbeat CPU  1 instructions:   30000001 cycles:   17850668 heartbeat IPC: 1.66144 cumulative IPC: 1.68061 (Simulation time: 0 hr 2 min 19 sec) 
Heartbeat CPU  0 instructions:   30000000 cycles:   18059355 heartbeat IPC: 1.65189 cumulative IPC: 1.66119 (Simulation time: 0 hr 2 min 21 sec) 
Heartbeat CPU  2 instructions:   30000002 cycles:   18216907 heartbeat IPC: 1.55331 cumulative IPC: 1.64682 (Simulation time: 0 hr 2 min 22 sec) 
Heartbeat CPU  3 instructions:   32000000 cycles:   18319478 heartbeat IPC: 1.62759 cumulative IPC: 1.74677 (Simulation time: 0 hr 2 min 23 sec) 
Heartbeat CPU  1 instructions:   31000000 cycles:   18449887 heartbeat IPC: 1.66884 cumulative IPC: 1.68023 (Simulation time: 0 hr 2 min 24 sec) 
Heartbeat CPU  0 instructions:   31000003 cycles:   18689617 heartbeat IPC: 1.58665 cumulative IPC: 1.65868 (Simulation time: 0 hr 2 min 26 sec) 
Heartbeat CPU  2 instructions:   31000003 cycles:   18740884 heartbeat IPC: 1.90848 cumulative IPC: 1.65414 (Simulation time: 0 hr 2 min 26 sec) 
Heartbeat CPU  3 instructions:   33000001 cycles:   18900265 heartbeat IPC: 1.72180 cumulative IPC: 1.74601 (Simulation time: 0 hr 2 min 27 sec) 
Heartbeat CPU  1 instructions:   32000000 cycles:   19054862 heartbeat IPC: 1.65296 cumulative IPC: 1.67936 (Simulation time: 0 hr 2 min 28 sec) 
Heartbeat CPU  0 instructions:   32000000 cycles:   19272315 heartbeat IPC: 1.71615 cumulative IPC: 1.66041 (Simulation time: 0 hr 2 min 30 sec) 
Heartbeat CPU  2 instructions:   32000000 cycles:   19337035 heartbeat IPC: 1.67742 cumulative IPC: 1.65486 (Simulation time: 0 hr 2 min 30 sec) 
Heartbeat CPU  3 instructions:   34000003 cycles:   19501391 heartbeat IPC: 1.66355 cumulative IPC: 1.74347 (Simulation time: 0 hr 2 min 32 sec) 
Heartbeat CPU  1 instructions:   33000001 cycles:   19657039 heartbeat IPC: 1.66064 cumulative IPC: 1.67879 (Simulation time: 0 hr 2 min 33 sec) 
Heartbeat CPU  0 instructions:   33000000 cycles:   19856903 heartbeat IPC: 1.71061 cumulative IPC: 1.66189 (Simulation time: 0 hr 2 min 34 sec) 
Heartbeat CPU  2 instructions:   33000003 cycles:   19914506 heartbeat IPC: 1.73169 cumulative IPC: 1.65708 (Simulation time: 0 hr 2 min 35 sec) 
Heartbeat CPU  3 instructions:   35000001 cycles:   20102110 heartbeat IPC: 1.66467 cumulative IPC: 1.74111 (Simulation time: 0 hr 2 min 36 sec) 
Heartbeat CPU  1 instructions:   34000002 cycles:   20179219 heartbeat IPC: 1.91505 cumulative IPC: 1.68490 (Simulation time: 0 hr 2 min 37 sec) 
Heartbeat CPU  0 instructions:   34000000 cycles:   20457216 heartbeat IPC: 1.66580 cumulative IPC: 1.66201 (Simulation time: 0 hr 2 min 39 sec) 
Heartbeat CPU  2 instructions:   34000000 cycles:   20513054 heartbeat IPC: 1.67070 cumulative IPC: 1.65748 (Simulation time: 0 hr 2 min 39 sec) 
Heartbeat CPU  3 instructions:   36000000 cycles:   20707678 heartbeat IPC: 1.65134 cumulative IPC: 1.73849 (Simulation time: 0 hr 2 min 41 sec) 
Heartbeat CPU  1 instructions:   35000003 cycles:   20808746 heartbeat IPC: 1.58850 cumulative IPC: 1.68199 (Simulation time: 0 hr 2 min 41 sec) 
Heartbeat CPU  0 instructions:   35000000 cycles:   21059731 heartbeat IPC: 1.65971 cumulative IPC: 1.66194 (Simulation time: 0 hr 2 min 43 sec) 
Heartbeat CPU  2 instructions:   35000002 cycles:   21114182 heartbeat IPC: 1.66354 cumulative IPC: 1.65765 (Simulation time: 0 hr 2 min 44 sec) 
Heartbeat CPU  3 instructions:   37000003 cycles:   21307951 heartbeat IPC: 1.66591 cumulative IPC: 1.73644 (Simulation time: 0 hr 2 min 45 sec) 
Heartbeat CPU  1 instructions:   36000000 cycles:   21370695 heartbeat IPC: 1.77952 cumulative IPC: 1.68455 (Simulation time: 0 hr 2 min 46 sec) 
Heartbeat CPU  0 instructions:   36000000 cycles:   21657755 heartbeat IPC: 1.67217 cumulative IPC: 1.66222 (Simulation time: 0 hr 2 min 48 sec) 
Heartbeat CPU  2 instructions:   36000000 cycles:   21715013 heartbeat IPC: 1.66436 cumulative IPC: 1.65784 (Simulation time: 0 hr 2 min 48 sec) 
Heartbeat CPU  3 instructions:   38000003 cycles:   21912426 heartbeat IPC: 1.65433 cumulative IPC: 1.73418 (Simulation time: 0 hr 2 min 49 sec) 
Heartbeat CPU  1 instructions:   37000001 cycles:   21976184 heartbeat IPC: 1.65156 cumulative IPC: 1.68364 (Simulation time: 0 hr 2 min 50 sec) 
Heartbeat CPU  0 instructions:   37000002 cycles:   22275833 heartbeat IPC: 1.61792 cumulative IPC: 1.66099 (Simulation time: 0 hr 2 min 52 sec) 
Heartbeat CPU  2 instructions:   37000002 cycles:   22321111 heartbeat IPC: 1.64990 cumulative IPC: 1.65762 (Simulation time: 0 hr 2 min 52 sec) 
Heartbeat CPU  3 instructions:   39000003 cycles:   22544608 heartbeat IPC: 1.58182 cumulative IPC: 1.72990 (Simulation time: 0 hr 2 min 54 sec) 
Heartbeat CPU  1 instructions:   38000002 cycles:   22577659 heartbeat IPC: 1.66258 cumulative IPC: 1.68308 (Simulation time: 0 hr 2 min 54 sec) 
Heartbeat CPU  0 instructions:   38000001 cycles:   22896405 heartbeat IPC: 1.61141 cumulative IPC: 1.65965 (Simulation time: 0 hr 2 min 57 sec) 
Heartbeat CPU  2 instructions:   38000002 cycles:   22937227 heartbeat IPC: 1.62307 cumulative IPC: 1.65670 (Simulation time: 0 hr 2 min 57 sec) 
Heartbeat CPU  3 instructions:   40000000 cycles:   23083324 heartbeat IPC: 1.85626 cumulative IPC: 1.73285 (Simulation time: 0 hr 2 min 58 sec) 
Heartbeat CPU  1 instructions:   39000000 cycles:   23180452 heartbeat IPC: 1.65894 cumulative IPC: 1.68245 (Simulation time: 0 hr 2 min 59 sec) 
Heartbeat CPU  2 instructions:   39000002 cycles:   23537020 heartbeat IPC: 1.66724 cumulative IPC: 1.65696 (Simulation time: 0 hr 3 min 2 sec) 
Heartbeat CPU  0 instructions:   39000000 cycles:   23545451 heartbeat IPC: 1.54072 cumulative IPC: 1.65637 (Simulation time: 0 hr 3 min 2 sec) 
Heartbeat CPU  3 instructions:   41000001 cycles:   23615170 heartbeat IPC: 1.88025 cumulative IPC: 1.73617 (Simulation time: 0 hr 3 min 2 sec) 
Heartbeat CPU  1 instructions:   40000000 cycles:   23780537 heartbeat IPC: 1.66643 cumulative IPC: 1.68205 (Simulation time: 0 hr 3 min 4 sec) 
Heartbeat CPU  0 instructions:   40000000 cycles:   24082418 heartbeat IPC: 1.86231 cumulative IPC: 1.66096 (Simulation time: 0 hr 3 min 6 sec) 
Heartbeat CPU  3 instructions:   42000002 cycles:   24131793 heartbeat IPC: 1.93565 cumulative IPC: 1.74044 (Simulation time: 0 hr 3 min 7 sec) 
Heartbeat CPU  2 instructions:   40000000 cycles:   24139821 heartbeat IPC: 1.65892 cumulative IPC: 1.65701 (Simulation time: 0 hr 3 min 7 sec) 
Heartbeat CPU  1 instructions:   41000001 cycles:   24385312 heartbeat IPC: 1.65351 cumulative IPC: 1.68134 (Simulation time: 0 hr 3 min 9 sec) 
Heartbeat CPU  3 instructions:   43000001 cycles:   24643520 heartbeat IPC: 1.95416 cumulative IPC: 1.74488 (Simulation time: 0 hr 3 min 11 sec) 
Heartbeat CPU  0 instructions:   41000000 cycles:   24683543 heartbeat IPC: 1.66355 cumulative IPC: 1.66103 (Simulation time: 0 hr 3 min 11 sec) 
Heartbeat CPU  2 instructions:   41000000 cycles:   24762869 heartbeat IPC: 1.60501 cumulative IPC: 1.65570 (Simulation time: 0 hr 3 min 12 sec) 
Heartbeat CPU  1 instructions:   42000001 cycles:   24983957 heartbeat IPC: 1.67044 cumulative IPC: 1.68108 (Simulation time: 0 hr 3 min 13 sec) 
Heartbeat CPU  3 instructions:   44000000 cycles:   25180691 heartbeat IPC: 1.86160 cumulative IPC: 1.74737 (Simulation time: 0 hr 3 min 15 sec) 
Heartbeat CPU  0 instructions:   42000001 cycles:   25287253 heartbeat IPC: 1.65643 cumulative IPC: 1.66092 (Simulation time: 0 hr 3 min 16 sec) 
Heartbeat CPU  2 instructions:   42000000 cycles:   25368409 heartbeat IPC: 1.65142 cumulative IPC: 1.65560 (Simulation time: 0 hr 3 min 16 sec) 
Heartbeat CPU  1 instructions:   43000000 cycles:   25576109 heartbeat IPC: 1.68875 cumulative IPC: 1.68126 (Simulation time: 0 hr 3 min 18 sec) 
Heartbeat CPU  3 instructions:   45000000 cycles:   25696785 heartbeat IPC: 1.93763 cumulative IPC: 1.75119 (Simulation time: 0 hr 3 min 19 sec) 
Heartbeat CPU  0 instructions:   43000001 cycles:   25893163 heartbeat IPC: 1.65041 cumulative IPC: 1.66067 (Simulation time: 0 hr 3 min 21 sec) 
Heartbeat CPU  2 instructions:   43000002 cycles:   25974487 heartbeat IPC: 1.64996 cumulative IPC: 1.65547 (Simulation time: 0 hr 3 min 21 sec) 
Heartbeat CPU  1 instructions:   44000000 cycles:   26194096 heartbeat IPC: 1.61816 cumulative IPC: 1.67977 (Simulation time: 0 hr 3 min 23 sec) 
Heartbeat CPU  3 instructions:   46000000 cycles:   26307285 heartbeat IPC: 1.63800 cumulative IPC: 1.74857 (Simulation time: 0 hr 3 min 24 sec) 
Heartbeat CPU  0 instructions:   44000000 cycles:   26492630 heartbeat IPC: 1.66815 cumulative IPC: 1.66084 (Simulation time: 0 hr 3 min 25 sec) 
Heartbeat CPU  2 instructions:   44000000 cycles:   26581957 heartbeat IPC: 1.64617 cumulative IPC: 1.65526 (Simulation time: 0 hr 3 min 26 sec) 
Heartbeat CPU  1 instructions:   45000000 cycles:   26789120 heartbeat IPC: 1.68060 cumulative IPC: 1.67979 (Simulation time: 0 hr 3 min 27 sec) 
Heartbeat CPU  3 instructions:   47000003 cycles:   26914308 heartbeat IPC: 1.64739 cumulative IPC: 1.74628 (Simulation time: 0 hr 3 min 28 sec) 
Heartbeat CPU  0 instructions:   45000000 cycles:   27093347 heartbeat IPC: 1.66468 cumulative IPC: 1.66092 (Simulation time: 0 hr 3 min 29 sec) 
Heartbeat CPU  2 instructions:   45000002 cycles:   27183773 heartbeat IPC: 1.66164 cumulative IPC: 1.65540 (Simulation time: 0 hr 3 min 30 sec) 
Heartbeat CPU  1 instructions:   46000002 cycles:   27390469 heartbeat IPC: 1.66293 cumulative IPC: 1.67942 (Simulation time: 0 hr 3 min 31 sec) 
Heartbeat CPU  3 instructions:   48000000 cycles:   27518042 heartbeat IPC: 1.65635 cumulative IPC: 1.74431 (Simulation time: 0 hr 3 min 32 sec) 
Heartbeat CPU  0 instructions:   46000002 cycles:   27715537 heartbeat IPC: 1.60723 cumulative IPC: 1.65972 (Simulation time: 0 hr 3 min 34 sec) 
Heartbeat CPU  2 instructions:   46000002 cycles:   27797107 heartbeat IPC: 1.63043 cumulative IPC: 1.65485 (Simulation time: 0 hr 3 min 35 sec) 
Heartbeat CPU  1 instructions:   47000003 cycles:   27915186 heartbeat IPC: 1.90579 cumulative IPC: 1.68367 (Simulation time: 0 hr 3 min 36 sec) 
Heartbeat CPU  3 instructions:   49000003 cycles:   28119735 heartbeat IPC: 1.66198 cumulative IPC: 1.74255 (Simulation time: 0 hr 3 min 37 sec) 
Heartbeat CPU  0 instructions:   47000000 cycles:   28309774 heartbeat IPC: 1.68283 cumulative IPC: 1.66020 (Simulation time: 0 hr 3 min 38 sec) 
Heartbeat CPU  2 instructions:   47000002 cycles:   28408588 heartbeat IPC: 1.63537 cumulative IPC: 1.65443 (Simulation time: 0 hr 3 min 39 sec) 
Heartbeat CPU  1 instructions:   48000000 cycles:   28599551 heartbeat IPC: 1.46120 cumulative IPC: 1.67835 (Simulation time: 0 hr 3 min 40 sec) 
Heartbeat CPU  3 instructions:   50000000 cycles:   28722797 heartbeat IPC: 1.65820 cumulative IPC: 1.74078 (Simulation time: 0 hr 3 min 41 sec) 
Heartbeat CPU  0 instructions:   48000000 cycles:   28908139 heartbeat IPC: 1.67122 cumulative IPC: 1.66043 (Simulation time: 0 hr 3 min 43 sec) 
Heartbeat CPU  2 instructions:   48000000 cycles:   29002666 heartbeat IPC: 1.68328 cumulative IPC: 1.65502 (Simulation time: 0 hr 3 min 43 sec) 
Heartbeat CPU  1 instructions:   49000000 cycles:   29153667 heartbeat IPC: 1.80468 cumulative IPC: 1.68075 (Simulation time: 0 hr 3 min 45 sec) 
Heartbeat CPU  3 instructions:   51000003 cycles:   29328176 heartbeat IPC: 1.65186 cumulative IPC: 0.03410 (Simulation time: 0 hr 3 min 46 sec) 
Heartbeat CPU  0 instructions:   49000002 cycles:   29502869 heartbeat IPC: 1.68144 cumulative IPC: 1.66086 (Simulation time: 0 hr 3 min 47 sec) 
Heartbeat CPU  2 instructions:   49000001 cycles:   29605206 heartbeat IPC: 1.65964 cumulative IPC: 1.65511 (Simulation time: 0 hr 3 min 48 sec) 
Heartbeat CPU  1 instructions:   50000002 cycles:   29760892 heartbeat IPC: 1.64684 cumulative IPC: 1.68006 (Simulation time: 0 hr 3 min 49 sec) 
Heartbeat CPU  3 instructions:   52000000 cycles:   29937489 heartbeat IPC: 1.64119 cumulative IPC: 0.06681 (Simulation time: 0 hr 3 min 50 sec) 
Heartbeat CPU  0 instructions:   50000000 cycles:   30100094 heartbeat IPC: 1.67441 cumulative IPC: 1.66112 (Simulation time: 0 hr 3 min 51 sec) 
Heartbeat CPU  2 instructions:   50000000 cycles:   30200852 heartbeat IPC: 1.67885 cumulative IPC: 1.65558 (Simulation time: 0 hr 3 min 52 sec) 

Warmup complete CPU  0 instructions:   50165342 cycles:   30200854 (Simulation time: 0 hr 3 min 52 sec) 
Warmup complete CPU  1 instructions:   50734095 cycles:   30200854 (Simulation time: 0 hr 3 min 52 sec) 
Warmup complete CPU  2 instructions:   50000001 cycles:   30200854 (Simulation time: 0 hr 3 min 52 sec) 
Warmup complete CPU  3 instructions:   52411782 cycles:   30200853 (Simulation time: 0 hr 3 min 52 sec) 

Heartbeat CPU  1 instructions:   51000001 cycles:   31054357 heartbeat IPC: 0.77312 cumulative IPC: 0.31155 (Simulation time: 0 hr 3 min 54 sec) 
Heartbeat CPU  3 instructions:   53000000 cycles:   31846602 heartbeat IPC: 0.52380 cumulative IPC: 0.35742 (Simulation time: 0 hr 3 min 56 sec) 
Heartbeat CPU  0 instructions:   51000001 cycles:   32858507 heartbeat IPC: 0.36253 cumulative IPC: 0.31406 (Simulation time: 0 hr 3 min 59 sec) 
Heartbeat CPU  2 instructions:   51000000 cycles:   32883888 heartbeat IPC: 0.37271 cumulative IPC: 0.37271 (Simulation time: 0 hr 3 min 59 sec) 
Heartbeat CPU  1 instructions:   52000000 cycles:   34279380 heartbeat IPC: 0.31007 cumulative IPC: 0.31038 (Simulation time: 0 hr 4 min 1 sec) 
Heartbeat CPU  3 instructions:   54000002 cycles:   34813624 heartbeat IPC: 0.33704 cumulative IPC: 0.34431 (Simulation time: 0 hr 4 min 3 sec) 
Heartbeat CPU  0 instructions:   52000000 cycles:   35655660 heartbeat IPC: 0.35751 cumulative IPC: 0.33634 (Simulation time: 0 hr 4 min 5 sec) 
Heartbeat CPU  2 instructions:   52000000 cycles:   36263167 heartbeat IPC: 0.29592 cumulative IPC: 0.32991 (Simulation time: 0 hr 4 min 6 sec) 
Heartbeat CPU  1 instructions:   53000003 cycles:   37628795 heartbeat IPC: 0.29856 cumulative IPC: 0.30505 (Simulation time: 0 hr 4 min 9 sec) 
Heartbeat CPU  3 instructions:   55000000 cycles:   38352680 heartbeat IPC: 0.28256 cumulative IPC: 0.31750 (Simulation time: 0 hr 4 min 11 sec) 
Heartbeat CPU  0 instructions:   53000001 cycles:   38906849 heartbeat IPC: 0.30758 cumulative IPC: 0.32560 (Simulation time: 0 hr 4 min 12 sec) 
Heartbeat CPU  2 instructions:   53000000 cycles:   39573707 heartbeat IPC: 0.30207 cumulative IPC: 0.32007 (Simulation time: 0 hr 4 min 14 sec) 
Heartbeat CPU  1 instructions:   54000000 cycles:   40884432 heartbeat IPC: 0.30716 cumulative IPC: 0.30569 (Simulation time: 0 hr 4 min 17 sec) 
Heartbeat CPU  3 instructions:   56000000 cycles:   40954398 heartbeat IPC: 0.38436 cumulative IPC: 0.33368 (Simulation time: 0 hr 4 min 17 sec) 
Heartbeat CPU  2 instructions:   54000000 cycles:   41509469 heartbeat IPC: 0.51659 cumulative IPC: 0.35371 (Simulation time: 0 hr 4 min 19 sec) 
Heartbeat CPU  0 instructions:   54000000 cycles:   42447756 heartbeat IPC: 0.28241 cumulative IPC: 0.31311 (Simulation time: 0 hr 4 min 21 sec) 
Heartbeat CPU  1 instructions:   55000001 cycles:   43285321 heartbeat IPC: 0.41651 cumulative IPC: 0.32603 (Simulation time: 0 hr 4 min 23 sec) 
Heartbeat CPU  3 instructions:   57000000 cycles:   43650767 heartbeat IPC: 0.37087 cumulative IPC: 0.34113 (Simulation time: 0 hr 4 min 24 sec) 
Heartbeat CPU  2 instructions:   55000001 cycles:   44292300 heartbeat IPC: 0.35935 cumulative IPC: 0.35483 (Simulation time: 0 hr 4 min 26 sec) 
Heartbeat CPU  3 instructions:   58000001 cycles:   45652284 heartbeat IPC: 0.49962 cumulative IPC: 0.36166 (Simulation time: 0 hr 4 min 29 sec) 
Heartbeat CPU  0 instructions:   55000003 cycles:   45962482 heartbeat IPC: 0.28452 cumulative IPC: 0.30674 (Simulation time: 0 hr 4 min 30 sec) 
Heartbeat CPU  1 instructions:   56000000 cycles:   46373242 heartbeat IPC: 0.32384 cumulative IPC: 0.32561 (Simulation time: 0 hr 4 min 31 sec) 
Heartbeat CPU  1 instructions:   57000000 cycles:   47644740 heartbeat IPC: 0.78647 cumulative IPC: 0.35920 (Simulation time: 0 hr 4 min 35 sec) 
Heartbeat CPU  2 instructions:   56000000 cycles:   47744588 heartbeat IPC: 0.28966 cumulative IPC: 0.34200 (Simulation time: 0 hr 4 min 35 sec) 
Heartbeat CPU  3 instructions:   59000000 cycles:   47864293 heartbeat IPC: 0.45208 cumulative IPC: 0.37299 (Simulation time: 0 hr 4 min 36 sec) 
Heartbeat CPU  0 instructions:   56000000 cycles:   49495135 heartbeat IPC: 0.28307 cumulative IPC: 0.30240 (Simulation time: 0 hr 4 min 40 sec) 
Heartbeat CPU  2 instructions:   57000002 cycles:   49787414 heartbeat IPC: 0.48952 cumulative IPC: 0.35739 (Simulation time: 0 hr 4 min 41 sec) 
Heartbeat CPU  3 instructions:   60000000 cycles:   50189140 heartbeat IPC: 0.43014 cumulative IPC: 0.37963 (Simulation time: 0 hr 4 min 42 sec) 
Heartbeat CPU  1 instructions:   58000003 cycles:   50582700 heartbeat IPC: 0.34037 cumulative IPC: 0.35649 (Simulation time: 0 hr 4 min 43 sec) 
Heartbeat CPU  2 instructions:   58000000 cycles:   51949679 heartbeat IPC: 0.46248 cumulative IPC: 0.36784 (Simulation time: 0 hr 4 min 46 sec) 
Heartbeat CPU  0 instructions:   57000002 cycles:   53266971 heartbeat IPC: 0.26512 cumulative IPC: 0.29631 (Simulation time: 0 hr 4 min 49 sec) 
Heartbeat CPU  1 instructions:   59000003 cycles:   53846967 heartbeat IPC: 0.30635 cumulative IPC: 0.34957 (Simulation time: 0 hr 4 min 50 sec) 
Heartbeat CPU  3 instructions:   61000003 cycles:   54040161 heartbeat IPC: 0.25967 cumulative IPC: 0.36025 (Simulation time: 0 hr 4 min 50 sec) 
Heartbeat CPU  2 instructions:   59000002 cycles:   54991205 heartbeat IPC: 0.32878 cumulative IPC: 0.36304 (Simulation time: 0 hr 4 min 52 sec) 
Heartbeat CPU  0 instructions:   58000001 cycles:   56443527 heartbeat IPC: 0.31481 cumulative IPC: 0.29855 (Simulation time: 0 hr 4 min 55 sec) 
Heartbeat CPU  1 instructions:   60000000 cycles:   57208976 heartbeat IPC: 0.29744 cumulative IPC: 0.34308 (Simulation time: 0 hr 4 min 57 sec) 
Heartbeat CPU  3 instructions:   62000002 cycles:   57311634 heartbeat IPC: 0.30567 cumulative IPC: 0.35367 (Simulation time: 0 hr 4 min 57 sec) 
Heartbeat CPU  2 instructions:   60000000 cycles:   58236312 heartbeat IPC: 0.30816 cumulative IPC: 0.35669 (Simulation time: 0 hr 5 min 0 sec) 
Heartbeat CPU  0 instructions:   59000001 cycles:   58678594 heartbeat IPC: 0.44741 cumulative IPC: 0.31023 (Simulation time: 0 hr 5 min 1 sec) 
Heartbeat CPU  3 instructions:   63000002 cycles:   59833739 heartbeat IPC: 0.39649 cumulative IPC: 0.35731 (Simulation time: 0 hr 5 min 4 sec) 
Heartbeat CPU  1 instructions:   61000000 cycles:   60527131 heartbeat IPC: 0.30137 cumulative IPC: 0.33852 (Simulation time: 0 hr 5 min 5 sec) 
Heartbeat CPU  2 instructions:   61000000 cycles:   61508988 heartbeat IPC: 0.30556 cumulative IPC: 0.35135 (Simulation time: 0 hr 5 min 7 sec) 
Heartbeat CPU  0 instructions:   60000000 cycles:   61630838 heartbeat IPC: 0.33873 cumulative IPC: 0.31291 (Simulation time: 0 hr 5 min 7 sec) 
Heartbeat CPU  3 instructions:   64000000 cycles:   62464707 heartbeat IPC: 0.38009 cumulative IPC: 0.35917 (Simulation time: 0 hr 5 min 9 sec) 
Heartbeat CPU  1 instructions:   62000001 cycles:   63879419 heartbeat IPC: 0.29830 cumulative IPC: 0.33451 (Simulation time: 0 hr 5 min 12 sec) 
Heartbeat CPU  2 instructions:   62000002 cycles:   64754152 heartbeat IPC: 0.30815 cumulative IPC: 0.34729 (Simulation time: 0 hr 5 min 14 sec) 
Heartbeat CPU  0 instructions:   61000003 cycles:   64880990 heartbeat IPC: 0.30768 cumulative IPC: 0.31242 (Simulation time: 0 hr 5 min 14 sec) 
Heartbeat CPU  3 instructions:   65000002 cycles:   65782231 heartbeat IPC: 0.30143 cumulative IPC: 0.35379 (Simulation time: 0 hr 5 min 16 sec) 
Heartbeat CPU  2 instructions:   63000000 cycles:   66923652 heartbeat IPC: 0.46093 cumulative IPC: 0.35400 (Simulation time: 0 hr 5 min 19 sec) 
Heartbeat CPU  1 instructions:   63000001 cycles:   67215272 heartbeat IPC: 0.29977 cumulative IPC: 0.33138 (Simulation time: 0 hr 5 min 20 sec) 
Heartbeat CPU  0 instructions:   62000000 cycles:   68177209 heartbeat IPC: 0.30338 cumulative IPC: 0.31163 (Simulation time: 0 hr 5 min 22 sec) 
Heartbeat CPU  2 instructions:   64000000 cycles:   68368226 heartbeat IPC: 0.69225 cumulative IPC: 0.36681 (Simulation time: 0 hr 5 min 23 sec) 
Heartbeat CPU  3 instructions:   66000001 cycles:   69101952 heartbeat IPC: 0.30123 cumulative IPC: 0.34930 (Simulation time: 0 hr 5 min 24 sec) 
Heartbeat CPU  1 instructions:   64000000 cycles:   70018733 heartbeat IPC: 0.35670 cumulative IPC: 0.33316 (Simulation time: 0 hr 5 min 26 sec) 
Heartbeat CPU  0 instructions:   63000000 cycles:   71456282 heartbeat IPC: 0.30496 cumulative IPC: 0.31110 (Simulation time: 0 hr 5 min 29 sec) 
Heartbeat CPU  2 instructions:   65000000 cycles:   71581061 heartbeat IPC: 0.31125 cumulative IPC: 0.36249 (Simulation time: 0 hr 5 min 29 sec) 
Heartbeat CPU  3 instructions:   67000000 cycles:   72326240 heartbeat IPC: 0.31015 cumulative IPC: 0.34630 (Simulation time: 0 hr 5 min 31 sec) 
Heartbeat CPU  1 instructions:   65000003 cycles:   73775844 heartbeat IPC: 0.26616 cumulative IPC: 0.32739 (Simulation time: 0 hr 5 min 34 sec) 
Heartbeat CPU  0 instructions:   64000000 cycles:   74699500 heartbeat IPC: 0.30834 cumulative IPC: 0.31090 (Simulation time: 0 hr 5 min 36 sec) 
Heartbeat CPU  2 instructions:   66000003 cycles:   74732502 heartbeat IPC: 0.31732 cumulative IPC: 0.35930 (Simulation time: 0 hr 5 min 36 sec) 
Heartbeat CPU  3 instructions:   68000000 cycles:   75627556 heartbeat IPC: 0.30291 cumulative IPC: 0.34315 (Simulation time: 0 hr 5 min 38 sec) 
Heartbeat CPU  1 instructions:   66000000 cycles:   76837118 heartbeat IPC: 0.32666 cumulative IPC: 0.32734 (Simulation time: 0 hr 5 min 40 sec) 
Heartbeat CPU  2 instructions:   67000003 cycles:   77918073 heartbeat IPC: 0.31392 cumulative IPC: 0.35627 (Simulation time: 0 hr 5 min 43 sec) 
Heartbeat CPU  0 instructions:   65000000 cycles:   78000405 heartbeat IPC: 0.30295 cumulative IPC: 0.31035 (Simulation time: 0 hr 5 min 43 sec) 
Heartbeat CPU  1 instructions:   67000002 cycles:   78926813 heartbeat IPC: 0.47854 cumulative IPC: 0.33382 (Simulation time: 0 hr 5 min 46 sec) 
Heartbeat CPU  3 instructions:   69000002 cycles:   78937441 heartbeat IPC: 0.30213 cumulative IPC: 0.34036 (Simulation time: 0 hr 5 min 46 sec) 
Heartbeat CPU  0 instructions:   66000000 cycles:   80495144 heartbeat IPC: 0.40084 cumulative IPC: 0.31484 (Simulation time: 0 hr 5 min 50 sec) 
Heartbeat CPU  2 instructions:   68000000 cycles:   81117073 heartbeat IPC: 0.31260 cumulative IPC: 0.35352 (Simulation time: 0 hr 5 min 51 sec) 
Heartbeat CPU  3 instructions:   70000003 cycles:   81244990 heartbeat IPC: 0.43336 cumulative IPC: 0.34457 (Simulation time: 0 hr 5 min 51 sec) 
Heartbeat CPU  1 instructions:   68000000 cycles:   82177859 heartbeat IPC: 0.30759 cumulative IPC: 0.33218 (Simulation time: 0 hr 5 min 53 sec) 
Heartbeat CPU  0 instructions:   67000000 cycles:   83234669 heartbeat IPC: 0.36503 cumulative IPC: 0.31743 (Simulation time: 0 hr 5 min 56 sec) 
Heartbeat CPU  2 instructions:   69000002 cycles:   84383661 heartbeat IPC: 0.30613 cumulative IPC: 0.35066 (Simulation time: 0 hr 5 min 58 sec) 
Heartbeat CPU  3 instructions:   71000000 cycles:   84485317 heartbeat IPC: 0.30861 cumulative IPC: 0.34242 (Simulation time: 0 hr 5 min 59 sec) 
Heartbeat CPU  1 instructions:   69000002 cycles:   85453020 heartbeat IPC: 0.30533 cumulative IPC: 0.33059 (Simulation time: 0 hr 6 min 1 sec) 
Heartbeat CPU  0 instructions:   68000000 cycles:   86206149 heartbeat IPC: 0.33653 cumulative IPC: 0.31845 (Simulation time: 0 hr 6 min 3 sec) 
Heartbeat CPU  2 instructions:   70000002 cycles:   87300926 heartbeat IPC: 0.34279 cumulative IPC: 0.35026 (Simulation time: 0 hr 6 min 5 sec) 
Heartbeat CPU  3 instructions:   72000000 cycles:   87417509 heartbeat IPC: 0.34104 cumulative IPC: 0.34235 (Simulation time: 0 hr 6 min 5 sec) 
Heartbeat CPU  1 instructions:   70000000 cycles:   88688536 heartbeat IPC: 0.30907 cumulative IPC: 0.32940 (Simulation time: 0 hr 6 min 8 sec) 
Heartbeat CPU  0 instructions:   69000000 cycles:   89021267 heartbeat IPC: 0.35522 cumulative IPC: 0.32021 (Simulation time: 0 hr 6 min 9 sec) 
Heartbeat CPU  2 instructions:   71000002 cycles:   90250714 heartbeat IPC: 0.33901 cumulative IPC: 0.34971 (Simulation time: 0 hr 6 min 12 sec) 
Heartbeat CPU  3 instructions:   73000000 cycles:   90484093 heartbeat IPC: 0.32610 cumulative IPC: 0.34152 (Simulation time: 0 hr 6 min 13 sec) 
Heartbeat CPU  0 instructions:   70000001 cycles:   90942116 heartbeat IPC: 0.52060 cumulative IPC: 0.32654 (Simulation time: 0 hr 6 min 14 sec) 
Heartbeat CPU  1 instructions:   71000000 cycles:   91993016 heartbeat IPC: 0.30262 cumulative IPC: 0.32797 (Simulation time: 0 hr 6 min 16 sec) 
Heartbeat CPU  3 instructions:   74000001 cycles:   93403469 heartbeat IPC: 0.34254 cumulative IPC: 0.34157 (Simulation time: 0 hr 6 min 19 sec) 
Heartbeat CPU  2 instructions:   72000000 cycles:   93594243 heartbeat IPC: 0.29908 cumulative IPC: 0.34704 (Simulation time: 0 hr 6 min 19 sec) 
Heartbeat CPU  0 instructions:   71000003 cycles:   94015360 heartbeat IPC: 0.32539 cumulative IPC: 0.32649 (Simulation time: 0 hr 6 min 20 sec) 
Heartbeat CPU  1 instructions:   72000000 cycles:   95256534 heartbeat IPC: 0.30642 cumulative IPC: 0.32689 (Simulation time: 0 hr 6 min 24 sec) 
Heartbeat CPU  3 instructions:   75000001 cycles:   95917818 heartbeat IPC: 0.39772 cumulative IPC: 0.34372 (Simulation time: 0 hr 6 min 25 sec) 
Heartbeat CPU  2 instructions:   73000000 cycles:   96203335 heartbeat IPC: 0.38328 cumulative IPC: 0.34847 (Simulation time: 0 hr 6 min 26 sec) 
Heartbeat CPU  0 instructions:   72000000 cycles:   97206982 heartbeat IPC: 0.31332 cumulative IPC: 0.32586 (Simulation time: 0 hr 6 min 29 sec) 
Heartbeat CPU  3 instructions:   76000000 cycles:   97469983 heartbeat IPC: 0.64426 cumulative IPC: 0.35065 (Simulation time: 0 hr 6 min 29 sec) 
Heartbeat CPU  1 instructions:   73000003 cycles:   98413015 heartbeat IPC: 0.31681 cumulative IPC: 0.32642 (Simulation time: 0 hr 6 min 31 sec) 
Heartbeat CPU  2 instructions:   74000000 cycles:   99525051 heartbeat IPC: 0.30105 cumulative IPC: 0.34620 (Simulation time: 0 hr 6 min 34 sec) 
Heartbeat CPU  0 instructions:   73000000 cycles:   99993447 heartbeat IPC: 0.35888 cumulative IPC: 0.32718 (Simulation time: 0 hr 6 min 35 sec) 
Heartbeat CPU  3 instructions:   77000003 cycles:  100502220 heartbeat IPC: 0.32979 cumulative IPC: 0.34975 (Simulation time: 0 hr 6 min 37 sec) 
Heartbeat CPU  1 instructions:   74000001 cycles:  100670202 heartbeat IPC: 0.44303 cumulative IPC: 0.33016 (Simulation time: 0 hr 6 min 37 sec) 
Heartbeat CPU  1 instructions:   75000000 cycles:  102327789 heartbeat IPC: 0.60329 cumulative IPC: 0.33643 (Simulation time: 0 hr 6 min 41 sec) 
Heartbeat CPU  2 instructions:   75000000 cycles:  102751138 heartbeat IPC: 0.30997 cumulative IPC: 0.34459 (Simulation time: 0 hr 6 min 42 sec) 
Heartbeat CPU  0 instructions:   74000002 cycles:  103429915 heartbeat IPC: 0.29100 cumulative IPC: 0.32548 (Simulation time: 0 hr 6 min 43 sec) 
Heartbeat CPU  3 instructions:   78000000 cycles:  103743182 heartbeat IPC: 0.30855 cumulative IPC: 0.34794 (Simulation time: 0 hr 6 min 44 sec) 
Heartbeat CPU  1 instructions:   76000000 cycles:  105310487 heartbeat IPC: 0.33527 cumulative IPC: 0.33639 (Simulation time: 0 hr 6 min 47 sec) 
Heartbeat CPU  2 instructions:   76000000 cycles:  105855162 heartbeat IPC: 0.32216 cumulative IPC: 0.34367 (Simulation time: 0 hr 6 min 48 sec) 
Heartbeat CPU  0 instructions:   75000003 cycles:  106801694 heartbeat IPC: 0.29658 cumulative IPC: 0.32421 (Simulation time: 0 hr 6 min 50 sec) 
Heartbeat CPU  3 instructions:   79000002 cycles:  107000958 heartbeat IPC: 0.30696 cumulative IPC: 0.34620 (Simulation time: 0 hr 6 min 50 sec) 
Heartbeat CPU  1 instructions:   77000003 cycles:  108472452 heartbeat IPC: 0.31626 cumulative IPC: 0.33557 (Simulation time: 0 hr 6 min 53 sec) 
Heartbeat CPU  2 instructions:   77000000 cycles:  108933607 heartbeat IPC: 0.32484 cumulative IPC: 0.34293 (Simulation time: 0 hr 6 min 55 sec) 
Heartbeat CPU  0 instructions:   76000000 cycles:  109668106 heartbeat IPC: 0.34887 cumulative IPC: 0.32510 (Simulation time: 0 hr 6 min 56 sec) 
Heartbeat CPU  3 instructions:   80000000 cycles:  110261442 heartbeat IPC: 0.30670 cumulative IPC: 0.34459 (Simulation time: 0 hr 6 min 58 sec) 
Heartbeat CPU  2 instructions:   78000002 cycles:  111407513 heartbeat IPC: 0.40422 cumulative IPC: 0.34480 (Simulation time: 0 hr 7 min 1 sec) 
Heartbeat CPU  1 instructions:   78000000 cycles:  111742504 heartbeat IPC: 0.30580 cumulative IPC: 0.33438 (Simulation time: 0 hr 7 min 1 sec) 
Heartbeat CPU  0 instructions:   77000001 cycles:  112323074 heartbeat IPC: 0.37665 cumulative IPC: 0.32676 (Simulation time: 0 hr 7 min 3 sec) 
Heartbeat CPU  3 instructions:   81000000 cycles:  113617567 heartbeat IPC: 0.29796 cumulative IPC: 0.34272 (Simulation time: 0 hr 7 min 5 sec) 
Heartbeat CPU  2 instructions:   79000001 cycles:  114410310 heartbeat IPC: 0.33302 cumulative IPC: 0.34438 (Simulation time: 0 hr 7 min 7 sec) 
Heartbeat CPU  1 instructions:   79000003 cycles:  114966154 heartbeat IPC: 0.31021 cumulative IPC: 0.33346 (Simulation time: 0 hr 7 min 9 sec) 
Heartbeat CPU  0 instructions:   78000000 cycles:  115505869 heartbeat IPC: 0.31419 cumulative IPC: 0.32630 (Simulation time: 0 hr 7 min 10 sec) 
Heartbeat CPU  2 instructions:   80000000 cycles:  116539412 heartbeat IPC: 0.46968 cumulative IPC: 0.34747 (Simulation time: 0 hr 7 min 13 sec) 
Heartbeat CPU  3 instructions:   82000000 cycles:  116650856 heartbeat IPC: 0.32968 cumulative IPC: 0.34226 (Simulation time: 0 hr 7 min 13 sec) 
Heartbeat CPU  3 instructions:   83000003 cycles:  117681432 heartbeat IPC: 0.97033 cumulative IPC: 0.34966 (Simulation time: 0 hr 7 min 17 sec) 
Heartbeat CPU  0 instructions:   79000002 cycles:  118166952 heartbeat IPC: 0.37579 cumulative IPC: 0.32779 (Simulation time: 0 hr 7 min 18 sec) 
Heartbeat CPU  2 instructions:   81000000 cycles:  118211925 heartbeat IPC: 0.59790 cumulative IPC: 0.35223 (Simulation time: 0 hr 7 min 18 sec) 
Heartbeat CPU  1 instructions:   80000000 cycles:  118245131 heartbeat IPC: 0.30497 cumulative IPC: 0.33240 (Simulation time: 0 hr 7 min 18 sec) 
Heartbeat CPU  3 instructions:   84000000 cycles:  120893824 heartbeat IPC: 0.31129 cumulative IPC: 0.34830 (Simulation time: 0 hr 7 min 24 sec) 
Heartbeat CPU  0 instructions:   80000000 cycles:  120932402 heartbeat IPC: 0.36160 cumulative IPC: 0.32882 (Simulation time: 0 hr 7 min 24 sec) 
Heartbeat CPU  2 instructions:   82000001 cycles:  121257070 heartbeat IPC: 0.32839 cumulative IPC: 0.35143 (Simulation time: 0 hr 7 min 24 sec) 
Heartbeat CPU  1 instructions:   81000003 cycles:  121403720 heartbeat IPC: 0.31660 cumulative IPC: 0.33185 (Simulation time: 0 hr 7 min 25 sec) 
DEADLOCK! CPU 2 instr_id: 82352982 translated: 2 fetched: 2 scheduled: 2 executed: 1 is_memory: 1 event: 122389118 current: 123389118

Load Queue Entry
[LQ] entry: 0 instr_id: 0 address: 0 translated: 0 fetched: 1
[LQ] entry: 1 instr_id: 0 address: 0 translated: 0 fetched: 1
[LQ] entry: 2 instr_id: 82352982 address: ff3ffd0d6040 translated: 2 fetched: 1
[LQ] entry: 3 instr_id: 0 address: 0 translated: 0 fetched: 1
[LQ] entry: 4 instr_id: 0 address: 0 translated: 0 fetched: 1
[LQ] entry: 5 instr_id: 0 address: 0 translated: 0 fetched: 1
[LQ] entry: 6 instr_id: 0 address: 0 translated: 0 fetched: 1
[LQ] entry: 7 instr_id: 0 address: 0 translated: 0 fetched: 1
[LQ] entry: 8 instr_id: 0 address: 0 translated: 0 fetched: 1
[LQ] entry: 9 instr_id: 0 address: 0 translated: 0 fetched: 1
[LQ] entry: 10 instr_id: 0 address: 0 translated: 0 fetched: 1
[LQ] entry: 11 instr_id: 0 address: 0 translated: 0 fetched: 1
[LQ] entry: 12 instr_id: 0 address: 0 translated: 0 fetched: 1
[LQ] entry: 13 instr_id: 0 address: 0 translated: 0 fetched: 1
[LQ] entry: 14 instr_id: 0 address: 0 translated: 0 fetched: 1
[LQ] entry: 15 instr_id: 0 address: 0 translated: 0 fetched: 1
[LQ] entry: 16 instr_id: 0 address: 0 translated: 0 fetched: 1
[LQ] entry: 17 instr_id: 0 address: 0 translated: 0 fetched: 1
[LQ] entry: 18 instr_id: 0 address: 0 translated: 0 fetched: 1
[LQ] entry: 19 instr_id: 0 address: 0 translated: 0 fetched: 1
[LQ] entry: 20 instr_id: 0 address: 0 translated: 0 fetched: 1
[LQ] entry: 21 instr_id: 0 address: 0 translated: 0 fetched: 1
[LQ] entry: 22 instr_id: 0 address: 0 translated: 0 fetched: 1
[LQ] entry: 23 instr_id: 0 address: 0 translated: 0 fetched: 1
[LQ] entry: 24 instr_id: 0 address: 0 translated: 0 fetched: 1
[LQ] entry: 25 instr_id: 0 address: 0 translated: 0 fetched: 1
[LQ] entry: 26 instr_id: 0 address: 0 translated: 0 fetched: 1
[LQ] entry: 27 instr_id: 0 address: 0 translated: 0 fetched: 1
[LQ] entry: 28 instr_id: 0 address: 0 translated: 0 fetched: 1
[LQ] entry: 29 instr_id: 0 address: 0 translated: 0 fetched: 1
[LQ] entry: 30 instr_id: 0 address: 0 translated: 0 fetched: 1
[LQ] entry: 31 instr_id: 0 address: 0 translated: 0 fetched: 1
[LQ] entry: 32 instr_id: 0 address: 0 translated: 0 fetched: 1
[LQ] entry: 33 instr_id: 0 address: 0 translated: 0 fetched: 1
[LQ] entry: 34 instr_id: 0 address: 0 translated: 0 fetched: 1
[LQ] entry: 35 instr_id: 0 address: 0 translated: 0 fetched: 1
[LQ] entry: 36 instr_id: 0 address: 0 translated: 0 fetched: 1
[LQ] entry: 37 instr_id: 0 address: 0 translated: 0 fetched: 1
[LQ] entry: 38 instr_id: 0 address: 0 translated: 0 fetched: 1
[LQ] entry: 39 instr_id: 0 address: 0 translated: 0 fetched: 1
[LQ] entry: 40 instr_id: 0 address: 0 translated: 0 fetched: 1
[LQ] entry: 41 instr_id: 0 address: 0 translated: 0 fetched: 1
[LQ] entry: 42 instr_id: 0 address: 0 translated: 0 fetched: 1
[LQ] entry: 43 instr_id: 0 address: 0 translated: 0 fetched: 1
[LQ] entry: 44 instr_id: 0 address: 0 translated: 0 fetched: 1
[LQ] entry: 45 instr_id: 0 address: 0 translated: 0 fetched: 1
[LQ] entry: 46 instr_id: 0 address: 0 translated: 0 fetched: 1
[LQ] entry: 47 instr_id: 0 address: 0 translated: 0 fetched: 1
[LQ] entry: 48 instr_id: 0 address: 0 translated: 0 fetched: 1
[LQ] entry: 49 instr_id: 0 address: 0 translated: 0 fetched: 1
[LQ] entry: 50 instr_id: 0 address: 0 translated: 0 fetched: 1
[LQ] entry: 51 instr_id: 0 address: 0 translated: 0 fetched: 1
[LQ] entry: 52 instr_id: 0 address: 0 translated: 0 fetched: 1
[LQ] entry: 53 instr_id: 0 address: 0 translated: 0 fetched: 1
[LQ] entry: 54 instr_id: 0 address: 0 translated: 0 fetched: 1
[LQ] entry: 55 instr_id: 0 address: 0 translated: 0 fetched: 1
[LQ] entry: 56 instr_id: 0 address: 0 translated: 0 fetched: 1
[LQ] entry: 57 instr_id: 0 address: 0 translated: 0 fetched: 1
[LQ] entry: 58 instr_id: 0 address: 0 translated: 0 fetched: 1
[LQ] entry: 59 instr_id: 0 address: 0 translated: 0 fetched: 1
[LQ] entry: 60 instr_id: 0 address: 0 translated: 0 fetched: 1
[LQ] entry: 61 instr_id: 0 address: 0 translated: 0 fetched: 1
[LQ] entry: 62 instr_id: 0 address: 0 translated: 0 fetched: 1
[LQ] entry: 63 instr_id: 0 address: 0 translated: 0 fetched: 1
[LQ] entry: 64 instr_id: 0 address: 0 translated: 0 fetched: 1
[LQ] entry: 65 instr_id: 0 address: 0 translated: 0 fetched: 1
[LQ] entry: 66 instr_id: 0 address: 0 translated: 0 fetched: 1
[LQ] entry: 67 instr_id: 0 address: 0 translated: 0 fetched: 1
[LQ] entry: 68 instr_id: 0 address: 0 translated: 0 fetched: 1
[LQ] entry: 69 instr_id: 0 address: 0 translated: 0 fetched: 1
[LQ] entry: 70 instr_id: 0 address: 0 translated: 0 fetched: 1
[LQ] entry: 71 instr_id: 0 address: 0 translated: 0 fetched: 1

Store Queue Entry
[SQ] entry: 0 instr_id: 0 address: 0 translated: 0 fetched: 0
[SQ] entry: 1 instr_id: 0 address: 0 translated: 0 fetched: 0
[SQ] entry: 2 instr_id: 0 address: 0 translated: 0 fetched: 0
[SQ] entry: 3 instr_id: 0 address: 0 translated: 0 fetched: 0
[SQ] entry: 4 instr_id: 0 address: 0 translated: 0 fetched: 0
[SQ] entry: 5 instr_id: 0 address: 0 translated: 0 fetched: 0
[SQ] entry: 6 instr_id: 0 address: 0 translated: 0 fetched: 0
[SQ] entry: 7 instr_id: 0 address: 0 translated: 0 fetched: 0
[SQ] entry: 8 instr_id: 0 address: 0 translated: 0 fetched: 0
[SQ] entry: 9 instr_id: 0 address: 0 translated: 0 fetched: 0
[SQ] entry: 10 instr_id: 0 address: 0 translated: 0 fetched: 0
[SQ] entry: 11 instr_id: 0 address: 0 translated: 0 fetched: 0
[SQ] entry: 12 instr_id: 0 address: 0 translated: 0 fetched: 0
[SQ] entry: 13 instr_id: 0 address: 0 translated: 0 fetched: 0
[SQ] entry: 14 instr_id: 0 address: 0 translated: 0 fetched: 0
[SQ] entry: 15 instr_id: 0 address: 0 translated: 0 fetched: 0
[SQ] entry: 16 instr_id: 0 address: 0 translated: 0 fetched: 0
[SQ] entry: 17 instr_id: 0 address: 0 translated: 0 fetched: 0
[SQ] entry: 18 instr_id: 0 address: 0 translated: 0 fetched: 0
[SQ] entry: 19 instr_id: 0 address: 0 translated: 0 fetched: 0
[SQ] entry: 20 instr_id: 0 address: 0 translated: 0 fetched: 0
[SQ] entry: 21 instr_id: 0 address: 0 translated: 0 fetched: 0
[SQ] entry: 22 instr_id: 0 address: 0 translated: 0 fetched: 0
[SQ] entry: 23 instr_id: 0 address: 0 translated: 0 fetched: 0
[SQ] entry: 24 instr_id: 0 address: 0 translated: 0 fetched: 0
[SQ] entry: 25 instr_id: 0 address: 0 translated: 0 fetched: 0
[SQ] entry: 26 instr_id: 0 address: 0 translated: 0 fetched: 0
[SQ] entry: 27 instr_id: 0 address: 0 translated: 0 fetched: 0
[SQ] entry: 28 instr_id: 0 address: 0 translated: 0 fetched: 0
[SQ] entry: 29 instr_id: 0 address: 0 translated: 0 fetched: 0
[SQ] entry: 30 instr_id: 0 address: 0 translated: 0 fetched: 0
[SQ] entry: 31 instr_id: 0 address: 0 translated: 0 fetched: 0
[SQ] entry: 32 instr_id: 0 address: 0 translated: 0 fetched: 0
[SQ] entry: 33 instr_id: 0 address: 0 translated: 0 fetched: 0
[SQ] entry: 34 instr_id: 0 address: 0 translated: 0 fetched: 0
[SQ] entry: 35 instr_id: 82352983 address: ff3ffd0cdde8 translated: 2 fetched: 0
[SQ] entry: 36 instr_id: 82352985 address: ff3ffd0cddec translated: 2 fetched: 0
[SQ] entry: 37 instr_id: 82352991 address: ff3ffd0cde08 translated: 2 fetched: 0
[SQ] entry: 38 instr_id: 82352994 address: ff3ffd0cde00 translated: 2 fetched: 0
[SQ] entry: 39 instr_id: 82352997 address: ff3ffd0cddf8 translated: 2 fetched: 0
[SQ] entry: 40 instr_id: 82353000 address: ff3ffd0cddf0 translated: 2 fetched: 0
[SQ] entry: 41 instr_id: 82353007 address: ff3ffd0cddd4 translated: 2 fetched: 0
[SQ] entry: 42 instr_id: 82353010 address: 8e95790890f6 translated: 2 fetched: 0
[SQ] entry: 43 instr_id: 82353048 address: ff3ffd0cddec translated: 2 fetched: 0
[SQ] entry: 44 instr_id: 82353058 address: ff3ffd0cddc8 translated: 2 fetched: 0
[SQ] entry: 45 instr_id: 82353059 address: 8e95790890f6 translated: 2 fetched: 0
[SQ] entry: 46 instr_id: 82353060 address: ff3ffd0cddc4 translated: 2 fetched: 0
[SQ] entry: 47 instr_id: 82353061 address: ff3ffd0cddc0 translated: 2 fetched: 0
[SQ] entry: 48 instr_id: 82353062 address: ff3ffd0cddd8 translated: 2 fetched: 0
[SQ] entry: 49 instr_id: 82353104 address: 8e95790365e4 translated: 2 fetched: 0
[SQ] entry: 50 instr_id: 0 address: 0 translated: 0 fetched: 0
[SQ] entry: 51 instr_id: 0 address: 0 translated: 0 fetched: 0
[SQ] entry: 52 instr_id: 0 address: 0 translated: 0 fetched: 0
[SQ] entry: 53 instr_id: 0 address: 0 translated: 0 fetched: 0
[SQ] entry: 54 instr_id: 0 address: 0 translated: 0 fetched: 0
[SQ] entry: 55 instr_id: 0 address: 0 translated: 0 fetched: 0

L1D_MSHR Entry
[L1D_MSHR] entry: 0 instr_id: 82352982 rob_index: 86 address: 3fcfff43581 full_addr: ff3ffd0d6040 type: 0 fill_level: 1 lq_index: 2 sq_index: 0
[L1D_MSHR] entry: 1 instr_id: 0 rob_index: -1 address: 0 full_addr: 0 type: 0 fill_level: -1 lq_index: 0 sq_index: 0
[L1D_MSHR] entry: 2 instr_id: 0 rob_index: -1 address: 0 full_addr: 0 type: 0 fill_level: -1 lq_index: 0 sq_index: 0
[L1D_MSHR] entry: 3 instr_id: 0 rob_index: -1 address: 0 full_addr: 0 type: 0 fill_level: -1 lq_index: 0 sq_index: 0
[L1D_MSHR] entry: 4 instr_id: 0 rob_index: -1 address: 0 full_addr: 0 type: 0 fill_level: -1 lq_index: 0 sq_index: 0
[L1D_MSHR] entry: 5 instr_id: 0 rob_index: -1 address: 0 full_addr: 0 type: 0 fill_level: -1 lq_index: 0 sq_index: 0
[L1D_MSHR] entry: 6 instr_id: 0 rob_index: -1 address: 0 full_addr: 0 type: 0 fill_level: -1 lq_index: 0 sq_index: 0
[L1D_MSHR] entry: 7 instr_id: 0 rob_index: -1 address: 0 full_addr: 0 type: 0 fill_level: -1 lq_index: 0 sq_index: 0
[L1D_MSHR] entry: 8 instr_id: 0 rob_index: -1 address: 0 full_addr: 0 type: 0 fill_level: -1 lq_index: 0 sq_index: 0
[L1D_MSHR] entry: 9 instr_id: 0 rob_index: -1 address: 0 full_addr: 0 type: 0 fill_level: -1 lq_index: 0 sq_index: 0
[L1D_MSHR] entry: 10 instr_id: 0 rob_index: -1 address: 0 full_addr: 0 type: 0 fill_level: -1 lq_index: 0 sq_index: 0
[L1D_MSHR] entry: 11 instr_id: 0 rob_index: -1 address: 0 full_addr: 0 type: 0 fill_level: -1 lq_index: 0 sq_index: 0
[L1D_MSHR] entry: 12 instr_id: 0 rob_index: -1 address: 0 full_addr: 0 type: 0 fill_level: -1 lq_index: 0 sq_index: 0
[L1D_MSHR] entry: 13 instr_id: 0 rob_index: -1 address: 0 full_addr: 0 type: 0 fill_level: -1 lq_index: 0 sq_index: 0
[L1D_MSHR] entry: 14 instr_id: 0 rob_index: -1 address: 0 full_addr: 0 type: 0 fill_level: -1 lq_index: 0 sq_index: 0
[L1D_MSHR] entry: 15 instr_id: 0 rob_index: -1 address: 0 full_addr: 0 type: 0 fill_level: -1 lq_index: 0 sq_index: 0
bimodal-no-coop_pythia-no-lru-4core: src/main.cc:323: void print_deadlock(uint32_t): Assertion `0' failed.
