*************************************************
   ChampSim Multicore Out-of-Order Simulator
   Last compiled: Apr 16 2025 04:49:12
*************************************************
parsing config file: /pref/Pythia/config/coop_pythia.ini

trace_0 /pref/Pythia/NUTCH/traces/nutch_phase1_core0.trace.xz
trace_1 /pref/Pythia/NUTCH/traces/nutch_phase1_core1.trace.xz
trace_2 /pref/Pythia/NUTCH/traces/nutch_phase1_core2.trace.xz
trace_3 /pref/Pythia/NUTCH/traces/nutch_phase1_core3.trace.xz
CPU 0 Bimodal branch predictor
CPU 1 Bimodal branch predictor
CPU 2 Bimodal branch predictor
CPU 3 Bimodal branch predictor
warmup_instructions 50000000
simulation_instructions 150000000
champsim_seed 7154
measure_ipc 0
measure_ipc_epoch 1000
measure_dram_bw 1
measure_dram_bw_epoch 256
measure_cache_acc 1
measure_cache_acc_epoch 1024
l1d_perfect 0
l2c_perfect 0
llc_perfect 0
l1d_semi_perfect 0
l2c_semi_perfect 0
llc_semi_perfect 0
semi_perfect_cache_page_buffer_size 64

num_cpus 4
cpu_freq 4000
dram_io_freq 2400
page_size 4096
block_size 64
max_read_per_cycle 8
max_fill_per_cycle 1
dram_channels 2
log2_dram_channels 1
dram_ranks 1
dram_banks 8
dram_rows 65536
dram_columns 128
dram_row_size 8
dram_size 8192
dram_pages 2097152
======= Prefetcher Knob Settings =======
coop_enable_multicore: 1
coop_enable_bw_throttling: 1
coop_rl_enable: 1
coop_rl_ipc_threshold: 
coop_rl_alpha_high_ipc: 0.1
coop_rl_alpha_low_ipc: 0.02
coop_rl_bw_threshold: 2
========================================
fetch_width 6
decode_width 6
exec_width 4
lq_width 2
sq_width 2
retire_width 4
scheduler_size 128
branch_mispredict_penalty 20
rob_size 256
lq_size 72
sq_size 56
num_instr_destinations_sparc 4
num_instr_destinations 2
num_instr_sources 4

itlb_set 16
itlb_way 8
itlb_rq_size 16
itlb_wq_size 16
itlb_pq_size 0
itlb_mshr_size 8
itlb_latency 1

dtlb_set 16
dtlb_way 4
dtlb_rq_size 16
dtlb_wq_size 16
dtlb_pq_size 0
dtlb_mshr_size 8
dtlb_latency 1

stlb_set 128
stlb_way 12
stlb_rq_size 32
stlb_wq_size 32
stlb_pq_size 0
stlb_mshr_size 16
stlb_latency 8

l1i_size 32
l1i_set 64
l1i_way 8
l1i_rq_size 64
l1i_wq_size 64
l1i_pq_size 8
l1i_mshr_size 8
l1i_latency 1

l1d_size 32
l1d_set 64
l1d_way 8
l1d_rq_size 64
l1d_wq_size 64
l1d_pq_size 16
l1d_mshr_size 16
l1d_latency 4

l2c_size 256
l2c_set 512
l2c_way 8
l2c_rq_size 64
l2c_wq_size 32
l2c_pq_size 64
l2c_mshr_size 64
l2c_latency 10

llc_size 8192
llc_set 8192
llc_way 16
llc_rq_size 256
llc_wq_size 256
llc_pq_size 128
llc_mshr_size 256
llc_latency 20

dram_channel_width 8
dram_wq_size 64
dram_rq_size 64
tRP 15
tRCD 15
tCAS 12.5
dram_dbus_turn_around_time 30
dram_write_high_wm 56
dram_write_low_wm 48
min_dram_writes_per_switch 16
dram_mtps 2400
dram_dbus_return_time 13

[CoopPythia Config]
 - Adaptive Alpha: Enabled
 - Multicore Mode: Enabled
 - BW Throttling: Enabled
 - IPC Threshold: 5
 - BW Threshold: 2

Heartbeat CPU  3 instructions:    1000001 cycles:     587944 heartbeat IPC: 1.70084 cumulative IPC: 1.70084 (Simulation time: 0 hr 0 min 4 sec) 
Heartbeat CPU  2 instructions:    1000002 cycles:     598364 heartbeat IPC: 1.67123 cumulative IPC: 1.67123 (Simulation time: 0 hr 0 min 4 sec) 
Heartbeat CPU  1 instructions:    1000001 cycles:     622442 heartbeat IPC: 1.60658 cumulative IPC: 1.60658 (Simulation time: 0 hr 0 min 5 sec) 
Heartbeat CPU  0 instructions:    1000002 cycles:     733657 heartbeat IPC: 1.36304 cumulative IPC: 1.36304 (Simulation time: 0 hr 0 min 6 sec) 
Heartbeat CPU  3 instructions:    2000001 cycles:    1128739 heartbeat IPC: 1.84913 cumulative IPC: 1.77189 (Simulation time: 0 hr 0 min 10 sec) 
Heartbeat CPU  1 instructions:    2000001 cycles:    1149026 heartbeat IPC: 1.89903 cumulative IPC: 1.74061 (Simulation time: 0 hr 0 min 10 sec) 
Heartbeat CPU  0 instructions:    2000000 cycles:    1242366 heartbeat IPC: 1.96576 cumulative IPC: 1.60983 (Simulation time: 0 hr 0 min 11 sec) 
Heartbeat CPU  2 instructions:    2000002 cycles:    1251791 heartbeat IPC: 1.53039 cumulative IPC: 1.59771 (Simulation time: 0 hr 0 min 11 sec) 
Heartbeat CPU  0 instructions:    3000001 cycles:    1836514 heartbeat IPC: 1.68308 cumulative IPC: 1.63353 (Simulation time: 0 hr 0 min 15 sec) 
Heartbeat CPU  3 instructions:    3000002 cycles:    1843106 heartbeat IPC: 1.39984 cumulative IPC: 1.62769 (Simulation time: 0 hr 0 min 15 sec) 
Heartbeat CPU  1 instructions:    3000003 cycles:    1901250 heartbeat IPC: 1.32939 cumulative IPC: 1.57791 (Simulation time: 0 hr 0 min 15 sec) 
Heartbeat CPU  2 instructions:    3000003 cycles:    1930090 heartbeat IPC: 1.47428 cumulative IPC: 1.55433 (Simulation time: 0 hr 0 min 15 sec) 
Heartbeat CPU  3 instructions:    4000000 cycles:    2399153 heartbeat IPC: 1.79841 cumulative IPC: 1.66726 (Simulation time: 0 hr 0 min 19 sec) 
Heartbeat CPU  1 instructions:    4000000 cycles:    2430359 heartbeat IPC: 1.88996 cumulative IPC: 1.64585 (Simulation time: 0 hr 0 min 19 sec) 
Heartbeat CPU  2 instructions:    4000000 cycles:    2514012 heartbeat IPC: 1.71255 cumulative IPC: 1.59108 (Simulation time: 0 hr 0 min 20 sec) 
Heartbeat CPU  0 instructions:    4000000 cycles:    2558774 heartbeat IPC: 1.38454 cumulative IPC: 1.56325 (Simulation time: 0 hr 0 min 20 sec) 
Heartbeat CPU  3 instructions:    5000001 cycles:    2975331 heartbeat IPC: 1.73558 cumulative IPC: 1.68049 (Simulation time: 0 hr 0 min 23 sec) 
Heartbeat CPU  1 instructions:    5000000 cycles:    3034411 heartbeat IPC: 1.65549 cumulative IPC: 1.64777 (Simulation time: 0 hr 0 min 24 sec) 
Heartbeat CPU  2 instructions:    5000000 cycles:    3086142 heartbeat IPC: 1.74785 cumulative IPC: 1.62015 (Simulation time: 0 hr 0 min 24 sec) 
Heartbeat CPU  0 instructions:    5000000 cycles:    3089525 heartbeat IPC: 1.88412 cumulative IPC: 1.61837 (Simulation time: 0 hr 0 min 24 sec) 
Heartbeat CPU  3 instructions:    6000003 cycles:    3546070 heartbeat IPC: 1.75212 cumulative IPC: 1.69201 (Simulation time: 0 hr 0 min 27 sec) 
Heartbeat CPU  1 instructions:    6000000 cycles:    3636406 heartbeat IPC: 1.66114 cumulative IPC: 1.64998 (Simulation time: 0 hr 0 min 28 sec) 
Heartbeat CPU  0 instructions:    6000003 cycles:    3693206 heartbeat IPC: 1.65651 cumulative IPC: 1.62461 (Simulation time: 0 hr 0 min 28 sec) 
Heartbeat CPU  2 instructions:    6000003 cycles:    3696653 heartbeat IPC: 1.63798 cumulative IPC: 1.62309 (Simulation time: 0 hr 0 min 28 sec) 
Heartbeat CPU  3 instructions:    7000002 cycles:    4110919 heartbeat IPC: 1.77038 cumulative IPC: 1.70278 (Simulation time: 0 hr 0 min 32 sec) 
Heartbeat CPU  1 instructions:    7000000 cycles:    4238821 heartbeat IPC: 1.65999 cumulative IPC: 1.65140 (Simulation time: 0 hr 0 min 32 sec) 
Heartbeat CPU  0 instructions:    7000000 cycles:    4295885 heartbeat IPC: 1.65925 cumulative IPC: 1.62947 (Simulation time: 0 hr 0 min 33 sec) 
Heartbeat CPU  2 instructions:    7000003 cycles:    4305038 heartbeat IPC: 1.64370 cumulative IPC: 1.62600 (Simulation time: 0 hr 0 min 33 sec) 
Heartbeat CPU  3 instructions:    8000000 cycles:    4715569 heartbeat IPC: 1.65385 cumulative IPC: 1.69651 (Simulation time: 0 hr 0 min 36 sec) 
Heartbeat CPU  1 instructions:    8000000 cycles:    4842272 heartbeat IPC: 1.65714 cumulative IPC: 1.65212 (Simulation time: 0 hr 0 min 37 sec) 
Heartbeat CPU  2 instructions:    8000000 cycles:    4896661 heartbeat IPC: 1.69026 cumulative IPC: 1.63377 (Simulation time: 0 hr 0 min 37 sec) 
Heartbeat CPU  0 instructions:    8000000 cycles:    4902481 heartbeat IPC: 1.64854 cumulative IPC: 1.63183 (Simulation time: 0 hr 0 min 38 sec) 
Heartbeat CPU  3 instructions:    9000002 cycles:    5294425 heartbeat IPC: 1.72755 cumulative IPC: 1.69990 (Simulation time: 0 hr 0 min 41 sec) 
Heartbeat CPU  1 instructions:    9000003 cycles:    5447848 heartbeat IPC: 1.65133 cumulative IPC: 1.65203 (Simulation time: 0 hr 0 min 42 sec) 
Heartbeat CPU  2 instructions:    9000003 cycles:    5457993 heartbeat IPC: 1.78148 cumulative IPC: 1.64896 (Simulation time: 0 hr 0 min 42 sec) 
Heartbeat CPU  0 instructions:    9000001 cycles:    5501872 heartbeat IPC: 1.66836 cumulative IPC: 1.63581 (Simulation time: 0 hr 0 min 42 sec) 
Heartbeat CPU  3 instructions:   10000003 cycles:    5888561 heartbeat IPC: 1.68312 cumulative IPC: 1.69821 (Simulation time: 0 hr 0 min 45 sec) 
Heartbeat CPU  2 instructions:   10000000 cycles:    6006622 heartbeat IPC: 1.82272 cumulative IPC: 1.66483 (Simulation time: 0 hr 0 min 46 sec) 
Heartbeat CPU  1 instructions:   10000001 cycles:    6048476 heartbeat IPC: 1.66492 cumulative IPC: 1.65331 (Simulation time: 0 hr 0 min 47 sec) 
Heartbeat CPU  0 instructions:   10000001 cycles:    6105459 heartbeat IPC: 1.65676 cumulative IPC: 1.63788 (Simulation time: 0 hr 0 min 47 sec) 
Heartbeat CPU  3 instructions:   11000003 cycles:    6474126 heartbeat IPC: 1.70775 cumulative IPC: 1.69907 (Simulation time: 0 hr 0 min 50 sec) 
Heartbeat CPU  2 instructions:   11000000 cycles:    6569250 heartbeat IPC: 1.77737 cumulative IPC: 1.67447 (Simulation time: 0 hr 0 min 51 sec) 
Heartbeat CPU  1 instructions:   11000001 cycles:    6574504 heartbeat IPC: 1.90104 cumulative IPC: 1.67313 (Simulation time: 0 hr 0 min 51 sec) 
Heartbeat CPU  0 instructions:   11000001 cycles:    6696939 heartbeat IPC: 1.69067 cumulative IPC: 1.64254 (Simulation time: 0 hr 0 min 52 sec) 
Heartbeat CPU  3 instructions:   12000000 cycles:    7043056 heartbeat IPC: 1.75768 cumulative IPC: 1.70381 (Simulation time: 0 hr 0 min 55 sec) 
Heartbeat CPU  1 instructions:   12000000 cycles:    7111984 heartbeat IPC: 1.86053 cumulative IPC: 1.68729 (Simulation time: 0 hr 0 min 56 sec) 
Heartbeat CPU  2 instructions:   12000000 cycles:    7124126 heartbeat IPC: 1.80220 cumulative IPC: 1.68442 (Simulation time: 0 hr 0 min 56 sec) 
Heartbeat CPU  0 instructions:   12000000 cycles:    7257342 heartbeat IPC: 1.78443 cumulative IPC: 1.65350 (Simulation time: 0 hr 0 min 57 sec) 
Heartbeat CPU  3 instructions:   13000000 cycles:    7632645 heartbeat IPC: 1.69610 cumulative IPC: 1.70321 (Simulation time: 0 hr 1 min 0 sec) 
Heartbeat CPU  2 instructions:   13000003 cycles:    7683560 heartbeat IPC: 1.78753 cumulative IPC: 1.69192 (Simulation time: 0 hr 1 min 1 sec) 
Heartbeat CPU  1 instructions:   13000001 cycles:    7726611 heartbeat IPC: 1.62700 cumulative IPC: 1.68250 (Simulation time: 0 hr 1 min 1 sec) 
Heartbeat CPU  0 instructions:   13000001 cycles:    7833571 heartbeat IPC: 1.73542 cumulative IPC: 1.65952 (Simulation time: 0 hr 1 min 2 sec) 
Heartbeat CPU  3 instructions:   14000000 cycles:    8229583 heartbeat IPC: 1.67522 cumulative IPC: 1.70118 (Simulation time: 0 hr 1 min 5 sec) 
Heartbeat CPU  1 instructions:   14000003 cycles:    8268400 heartbeat IPC: 1.84574 cumulative IPC: 1.69319 (Simulation time: 0 hr 1 min 5 sec) 
Heartbeat CPU  2 instructions:   14000001 cycles:    8311252 heartbeat IPC: 1.59313 cumulative IPC: 1.68446 (Simulation time: 0 hr 1 min 6 sec) 
Heartbeat CPU  0 instructions:   14000002 cycles:    8419811 heartbeat IPC: 1.70579 cumulative IPC: 1.66275 (Simulation time: 0 hr 1 min 6 sec) 
Heartbeat CPU  3 instructions:   15000000 cycles:    8781703 heartbeat IPC: 1.81120 cumulative IPC: 1.70810 (Simulation time: 0 hr 1 min 10 sec) 
Heartbeat CPU  2 instructions:   15000000 cycles:    8832198 heartbeat IPC: 1.91958 cumulative IPC: 1.69833 (Simulation time: 0 hr 1 min 10 sec) 
Heartbeat CPU  1 instructions:   15000002 cycles:    8908150 heartbeat IPC: 1.56311 cumulative IPC: 1.68385 (Simulation time: 0 hr 1 min 11 sec) 
Heartbeat CPU  0 instructions:   15000002 cycles:    9015544 heartbeat IPC: 1.67860 cumulative IPC: 1.66379 (Simulation time: 0 hr 1 min 12 sec) 
Heartbeat CPU  3 instructions:   16000000 cycles:    9322893 heartbeat IPC: 1.84778 cumulative IPC: 1.71621 (Simulation time: 0 hr 1 min 14 sec) 
Heartbeat CPU  2 instructions:   16000000 cycles:    9360290 heartbeat IPC: 1.89361 cumulative IPC: 1.70935 (Simulation time: 0 hr 1 min 14 sec) 
Heartbeat CPU  1 instructions:   16000000 cycles:    9470352 heartbeat IPC: 1.77872 cumulative IPC: 1.68948 (Simulation time: 0 hr 1 min 15 sec) 
Heartbeat CPU  0 instructions:   16000000 cycles:    9622581 heartbeat IPC: 1.64734 cumulative IPC: 1.66276 (Simulation time: 0 hr 1 min 17 sec) 
Heartbeat CPU  3 instructions:   17000003 cycles:    9884364 heartbeat IPC: 1.78104 cumulative IPC: 1.71989 (Simulation time: 0 hr 1 min 19 sec) 
Heartbeat CPU  2 instructions:   17000003 cycles:    9915537 heartbeat IPC: 1.80101 cumulative IPC: 1.71448 (Simulation time: 0 hr 1 min 19 sec) 
Heartbeat CPU  1 instructions:   17000003 cycles:    9970422 heartbeat IPC: 1.99973 cumulative IPC: 1.70504 (Simulation time: 0 hr 1 min 20 sec) 
Heartbeat CPU  0 instructions:   17000000 cycles:   10238375 heartbeat IPC: 1.62392 cumulative IPC: 1.66042 (Simulation time: 0 hr 1 min 22 sec) 
Heartbeat CPU  2 instructions:   18000001 cycles:   10468822 heartbeat IPC: 1.80738 cumulative IPC: 1.71939 (Simulation time: 0 hr 1 min 24 sec) 
Heartbeat CPU  3 instructions:   18000002 cycles:   10478232 heartbeat IPC: 1.68387 cumulative IPC: 1.71785 (Simulation time: 0 hr 1 min 24 sec) 
Heartbeat CPU  1 instructions:   18000001 cycles:   10484793 heartbeat IPC: 1.94412 cumulative IPC: 1.71677 (Simulation time: 0 hr 1 min 24 sec) 
Heartbeat CPU  0 instructions:   18000000 cycles:   10838529 heartbeat IPC: 1.66624 cumulative IPC: 1.66074 (Simulation time: 0 hr 1 min 26 sec) 
Heartbeat CPU  1 instructions:   19000000 cycles:   11018427 heartbeat IPC: 1.87394 cumulative IPC: 1.72438 (Simulation time: 0 hr 1 min 28 sec) 
Heartbeat CPU  2 instructions:   19000003 cycles:   11066471 heartbeat IPC: 1.67323 cumulative IPC: 1.71690 (Simulation time: 0 hr 1 min 28 sec) 
Heartbeat CPU  3 instructions:   19000002 cycles:   11077127 heartbeat IPC: 1.66974 cumulative IPC: 1.71525 (Simulation time: 0 hr 1 min 28 sec) 
Heartbeat CPU  0 instructions:   19000003 cycles:   11416732 heartbeat IPC: 1.72950 cumulative IPC: 1.66422 (Simulation time: 0 hr 1 min 31 sec) 
Heartbeat CPU  1 instructions:   20000000 cycles:   11555851 heartbeat IPC: 1.86073 cumulative IPC: 1.73072 (Simulation time: 0 hr 1 min 32 sec) 
Heartbeat CPU  2 instructions:   20000000 cycles:   11654163 heartbeat IPC: 1.70157 cumulative IPC: 1.71613 (Simulation time: 0 hr 1 min 33 sec) 
Heartbeat CPU  3 instructions:   20000000 cycles:   11658432 heartbeat IPC: 1.72026 cumulative IPC: 1.71550 (Simulation time: 0 hr 1 min 33 sec) 
Heartbeat CPU  0 instructions:   20000000 cycles:   11990768 heartbeat IPC: 1.74205 cumulative IPC: 1.66795 (Simulation time: 0 hr 1 min 36 sec) 
Heartbeat CPU  1 instructions:   21000003 cycles:   12166110 heartbeat IPC: 1.63865 cumulative IPC: 1.72611 (Simulation time: 0 hr 1 min 37 sec) 
Heartbeat CPU  2 instructions:   21000002 cycles:   12181573 heartbeat IPC: 1.89606 cumulative IPC: 1.72392 (Simulation time: 0 hr 1 min 37 sec) 
Heartbeat CPU  3 instructions:   21000002 cycles:   12332428 heartbeat IPC: 1.48369 cumulative IPC: 1.70283 (Simulation time: 0 hr 1 min 38 sec) 
Heartbeat CPU  0 instructions:   21000002 cycles:   12553639 heartbeat IPC: 1.77661 cumulative IPC: 1.67282 (Simulation time: 0 hr 1 min 40 sec) 
Heartbeat CPU  1 instructions:   22000000 cycles:   12691550 heartbeat IPC: 1.90316 cumulative IPC: 1.73344 (Simulation time: 0 hr 1 min 41 sec) 
Heartbeat CPU  2 instructions:   22000002 cycles:   12718586 heartbeat IPC: 1.86215 cumulative IPC: 1.72975 (Simulation time: 0 hr 1 min 42 sec) 
Heartbeat CPU  3 instructions:   22000000 cycles:   12969207 heartbeat IPC: 1.57040 cumulative IPC: 1.69633 (Simulation time: 0 hr 1 min 44 sec) 
Heartbeat CPU  0 instructions:   22000002 cycles:   13121709 heartbeat IPC: 1.76035 cumulative IPC: 1.67661 (Simulation time: 0 hr 1 min 46 sec) 
Heartbeat CPU  1 instructions:   23000000 cycles:   13229284 heartbeat IPC: 1.85966 cumulative IPC: 1.73857 (Simulation time: 0 hr 1 min 46 sec) 
Heartbeat CPU  2 instructions:   23000003 cycles:   13272970 heartbeat IPC: 1.80381 cumulative IPC: 1.73285 (Simulation time: 0 hr 1 min 47 sec) 
Heartbeat CPU  3 instructions:   23000000 cycles:   13598016 heartbeat IPC: 1.59031 cumulative IPC: 1.69142 (Simulation time: 0 hr 1 min 50 sec) 
Heartbeat CPU  0 instructions:   23000002 cycles:   13687705 heartbeat IPC: 1.76680 cumulative IPC: 1.68034 (Simulation time: 0 hr 1 min 50 sec) 
Heartbeat CPU  1 instructions:   24000000 cycles:   13760961 heartbeat IPC: 1.88084 cumulative IPC: 1.74406 (Simulation time: 0 hr 1 min 51 sec) 
Heartbeat CPU  2 instructions:   24000000 cycles:   13825750 heartbeat IPC: 1.80903 cumulative IPC: 1.73589 (Simulation time: 0 hr 1 min 52 sec) 
Heartbeat CPU  3 instructions:   24000000 cycles:   14181167 heartbeat IPC: 1.71482 cumulative IPC: 1.69239 (Simulation time: 0 hr 1 min 55 sec) 
Heartbeat CPU  0 instructions:   24000000 cycles:   14232268 heartbeat IPC: 1.83633 cumulative IPC: 1.68631 (Simulation time: 0 hr 1 min 55 sec) 
Heartbeat CPU  1 instructions:   25000003 cycles:   14300815 heartbeat IPC: 1.85236 cumulative IPC: 1.74815 (Simulation time: 0 hr 1 min 56 sec) 
Heartbeat CPU  2 instructions:   25000000 cycles:   14366728 heartbeat IPC: 1.84850 cumulative IPC: 1.74013 (Simulation time: 0 hr 1 min 56 sec) 
Heartbeat CPU  0 instructions:   25000000 cycles:   14772785 heartbeat IPC: 1.85008 cumulative IPC: 1.69230 (Simulation time: 0 hr 2 min 0 sec) 
Heartbeat CPU  3 instructions:   25000000 cycles:   14786118 heartbeat IPC: 1.65303 cumulative IPC: 1.69078 (Simulation time: 0 hr 2 min 0 sec) 
Heartbeat CPU  2 instructions:   26000000 cycles:   14973870 heartbeat IPC: 1.64706 cumulative IPC: 1.73636 (Simulation time: 0 hr 2 min 1 sec) 
Heartbeat CPU  1 instructions:   26000000 cycles:   14982690 heartbeat IPC: 1.46654 cumulative IPC: 1.73534 (Simulation time: 0 hr 2 min 1 sec) 
Heartbeat CPU  3 instructions:   26000001 cycles:   15363296 heartbeat IPC: 1.73257 cumulative IPC: 1.69235 (Simulation time: 0 hr 2 min 5 sec) 
Heartbeat CPU  0 instructions:   26000000 cycles:   15411934 heartbeat IPC: 1.56458 cumulative IPC: 1.68700 (Simulation time: 0 hr 2 min 5 sec) 
Heartbeat CPU  2 instructions:   27000003 cycles:   15546219 heartbeat IPC: 1.74719 cumulative IPC: 1.73676 (Simulation time: 0 hr 2 min 6 sec) 
Heartbeat CPU  1 instructions:   27000000 cycles:   15634216 heartbeat IPC: 1.53486 cumulative IPC: 1.72698 (Simulation time: 0 hr 2 min 7 sec) 
Heartbeat CPU  3 instructions:   27000000 cycles:   15890377 heartbeat IPC: 1.89724 cumulative IPC: 1.69914 (Simulation time: 0 hr 2 min 9 sec) 
Heartbeat CPU  2 instructions:   28000000 cycles:   16080613 heartbeat IPC: 1.87127 cumulative IPC: 1.74123 (Simulation time: 0 hr 2 min 10 sec) 
Heartbeat CPU  1 instructions:   28000000 cycles:   16213350 heartbeat IPC: 1.72672 cumulative IPC: 1.72697 (Simulation time: 0 hr 2 min 11 sec) 
Heartbeat CPU  0 instructions:   27000001 cycles:   16289928 heartbeat IPC: 1.13896 cumulative IPC: 1.65747 (Simulation time: 0 hr 2 min 11 sec) 
Heartbeat CPU  2 instructions:   29000000 cycles:   16641361 heartbeat IPC: 1.78333 cumulative IPC: 1.74265 (Simulation time: 0 hr 2 min 14 sec) 
Heartbeat CPU  3 instructions:   28000000 cycles:   16694922 heartbeat IPC: 1.24294 cumulative IPC: 1.67716 (Simulation time: 0 hr 2 min 15 sec) 
Heartbeat CPU  0 instructions:   28000000 cycles:   16740148 heartbeat IPC: 2.22113 cumulative IPC: 1.67263 (Simulation time: 0 hr 2 min 15 sec) 
Heartbeat CPU  1 instructions:   29000000 cycles:   16811972 heartbeat IPC: 1.67050 cumulative IPC: 1.72496 (Simulation time: 0 hr 2 min 15 sec) 
Heartbeat CPU  2 instructions:   30000000 cycles:   17193263 heartbeat IPC: 1.81192 cumulative IPC: 1.74487 (Simulation time: 0 hr 2 min 19 sec) 
Heartbeat CPU  0 instructions:   29000002 cycles:   17273098 heartbeat IPC: 1.87635 cumulative IPC: 1.67891 (Simulation time: 0 hr 2 min 19 sec) 
Heartbeat CPU  1 instructions:   30000001 cycles:   17413791 heartbeat IPC: 1.66163 cumulative IPC: 1.72277 (Simulation time: 0 hr 2 min 20 sec) 
Heartbeat CPU  3 instructions:   29000001 cycles:   17439891 heartbeat IPC: 1.34234 cumulative IPC: 1.66285 (Simulation time: 0 hr 2 min 20 sec) 
Heartbeat CPU  2 instructions:   31000003 cycles:   17773148 heartbeat IPC: 1.72449 cumulative IPC: 1.74420 (Simulation time: 0 hr 2 min 23 sec) 
Heartbeat CPU  0 instructions:   30000002 cycles:   17876916 heartbeat IPC: 1.65613 cumulative IPC: 1.67814 (Simulation time: 0 hr 2 min 24 sec) 
Heartbeat CPU  1 instructions:   31000000 cycles:   18016883 heartbeat IPC: 1.65812 cumulative IPC: 1.72061 (Simulation time: 0 hr 2 min 25 sec) 
Heartbeat CPU  3 instructions:   30000003 cycles:   18150867 heartbeat IPC: 1.40652 cumulative IPC: 1.65281 (Simulation time: 0 hr 2 min 26 sec) 
Heartbeat CPU  2 instructions:   32000000 cycles:   18326534 heartbeat IPC: 1.80705 cumulative IPC: 1.74610 (Simulation time: 0 hr 2 min 27 sec) 
Heartbeat CPU  0 instructions:   31000001 cycles:   18481921 heartbeat IPC: 1.65288 cumulative IPC: 1.67731 (Simulation time: 0 hr 2 min 28 sec) 
Heartbeat CPU  1 instructions:   32000000 cycles:   18624554 heartbeat IPC: 1.64563 cumulative IPC: 1.71816 (Simulation time: 0 hr 2 min 29 sec) 
Heartbeat CPU  3 instructions:   31000003 cycles:   18639137 heartbeat IPC: 2.04805 cumulative IPC: 1.66317 (Simulation time: 0 hr 2 min 30 sec) 
Heartbeat CPU  2 instructions:   33000001 cycles:   18945829 heartbeat IPC: 1.61474 cumulative IPC: 1.74181 (Simulation time: 0 hr 2 min 32 sec) 
Heartbeat CPU  0 instructions:   32000000 cycles:   19083965 heartbeat IPC: 1.66101 cumulative IPC: 1.67680 (Simulation time: 0 hr 2 min 33 sec) 
Heartbeat CPU  1 instructions:   33000001 cycles:   19221701 heartbeat IPC: 1.67463 cumulative IPC: 1.71681 (Simulation time: 0 hr 2 min 34 sec) 
Heartbeat CPU  3 instructions:   32000000 cycles:   19243330 heartbeat IPC: 1.65510 cumulative IPC: 1.66291 (Simulation time: 0 hr 2 min 34 sec) 
Heartbeat CPU  2 instructions:   34000003 cycles:   19539384 heartbeat IPC: 1.68477 cumulative IPC: 1.74008 (Simulation time: 0 hr 2 min 36 sec) 
Heartbeat CPU  0 instructions:   33000000 cycles:   19694762 heartbeat IPC: 1.63721 cumulative IPC: 1.67557 (Simulation time: 0 hr 2 min 38 sec) 
Heartbeat CPU  3 instructions:   33000000 cycles:   19856917 heartbeat IPC: 1.62976 cumulative IPC: 1.66189 (Simulation time: 0 hr 2 min 39 sec) 
Heartbeat CPU  1 instructions:   34000002 cycles:   19865588 heartbeat IPC: 1.55307 cumulative IPC: 1.71150 (Simulation time: 0 hr 2 min 39 sec) 
Heartbeat CPU  2 instructions:   35000001 cycles:   19979852 heartbeat IPC: 2.27031 cumulative IPC: 1.75176 (Simulation time: 0 hr 2 min 40 sec) 
Heartbeat CPU  0 instructions:   34000000 cycles:   20301039 heartbeat IPC: 1.64941 cumulative IPC: 1.67479 (Simulation time: 0 hr 2 min 42 sec) 
Heartbeat CPU  3 instructions:   34000000 cycles:   20458051 heartbeat IPC: 1.66352 cumulative IPC: 1.66194 (Simulation time: 0 hr 2 min 43 sec) 
Heartbeat CPU  2 instructions:   36000000 cycles:   20522338 heartbeat IPC: 1.84336 cumulative IPC: 1.75419 (Simulation time: 0 hr 2 min 44 sec) 
Heartbeat CPU  1 instructions:   35000002 cycles:   20571420 heartbeat IPC: 1.41677 cumulative IPC: 1.70139 (Simulation time: 0 hr 2 min 44 sec) 
Heartbeat CPU  0 instructions:   35000001 cycles:   20918378 heartbeat IPC: 1.61986 cumulative IPC: 1.67317 (Simulation time: 0 hr 2 min 47 sec) 
Heartbeat CPU  3 instructions:   35000001 cycles:   21060557 heartbeat IPC: 1.65974 cumulative IPC: 1.66187 (Simulation time: 0 hr 2 min 48 sec) 
Heartbeat CPU  2 instructions:   37000000 cycles:   21128494 heartbeat IPC: 1.64974 cumulative IPC: 1.75119 (Simulation time: 0 hr 2 min 48 sec) 
Heartbeat CPU  1 instructions:   36000000 cycles:   21290493 heartbeat IPC: 1.39068 cumulative IPC: 1.69090 (Simulation time: 0 hr 2 min 49 sec) 
Heartbeat CPU  0 instructions:   36000000 cycles:   21616934 heartbeat IPC: 1.43152 cumulative IPC: 1.66536 (Simulation time: 0 hr 2 min 52 sec) 
Heartbeat CPU  3 instructions:   36000000 cycles:   21665844 heartbeat IPC: 1.65211 cumulative IPC: 1.66160 (Simulation time: 0 hr 2 min 52 sec) 
Heartbeat CPU  1 instructions:   37000001 cycles:   21706982 heartbeat IPC: 2.40103 cumulative IPC: 1.70452 (Simulation time: 0 hr 2 min 52 sec) 
Heartbeat CPU  2 instructions:   38000002 cycles:   21724715 heartbeat IPC: 1.67723 cumulative IPC: 1.74916 (Simulation time: 0 hr 2 min 53 sec) 
Heartbeat CPU  0 instructions:   37000003 cycles:   22150836 heartbeat IPC: 1.87301 cumulative IPC: 1.67037 (Simulation time: 0 hr 2 min 56 sec) 
Heartbeat CPU  3 instructions:   37000003 cycles:   22299911 heartbeat IPC: 1.57713 cumulative IPC: 1.65920 (Simulation time: 0 hr 2 min 57 sec) 
Heartbeat CPU  1 instructions:   38000000 cycles:   22320593 heartbeat IPC: 1.62970 cumulative IPC: 1.70246 (Simulation time: 0 hr 2 min 57 sec) 
Heartbeat CPU  2 instructions:   39000000 cycles:   22321404 heartbeat IPC: 1.67591 cumulative IPC: 1.74720 (Simulation time: 0 hr 2 min 57 sec) 
Heartbeat CPU  0 instructions:   38000000 cycles:   22752452 heartbeat IPC: 1.66218 cumulative IPC: 1.67015 (Simulation time: 0 hr 3 min 1 sec) 
Heartbeat CPU  3 instructions:   38000002 cycles:   22846411 heartbeat IPC: 1.82982 cumulative IPC: 1.66328 (Simulation time: 0 hr 3 min 1 sec) 
Heartbeat CPU  2 instructions:   40000000 cycles:   22923366 heartbeat IPC: 1.66123 cumulative IPC: 1.74494 (Simulation time: 0 hr 3 min 2 sec) 
Heartbeat CPU  1 instructions:   39000003 cycles:   22924623 heartbeat IPC: 1.65555 cumulative IPC: 1.70123 (Simulation time: 0 hr 3 min 2 sec) 
Heartbeat CPU  0 instructions:   39000000 cycles:   23364679 heartbeat IPC: 1.63338 cumulative IPC: 1.66919 (Simulation time: 0 hr 3 min 5 sec) 
Heartbeat CPU  2 instructions:   41000000 cycles:   23522278 heartbeat IPC: 1.66969 cumulative IPC: 1.74303 (Simulation time: 0 hr 3 min 6 sec) 
Heartbeat CPU  1 instructions:   40000000 cycles:   23529361 heartbeat IPC: 1.65360 cumulative IPC: 1.70000 (Simulation time: 0 hr 3 min 6 sec) 
Heartbeat CPU  3 instructions:   39000002 cycles:   23651324 heartbeat IPC: 1.24237 cumulative IPC: 1.64896 (Simulation time: 0 hr 3 min 7 sec) 
Heartbeat CPU  0 instructions:   40000000 cycles:   23967390 heartbeat IPC: 1.65917 cumulative IPC: 1.66893 (Simulation time: 0 hr 3 min 9 sec) 
Heartbeat CPU  3 instructions:   40000000 cycles:   24105195 heartbeat IPC: 2.20326 cumulative IPC: 1.65939 (Simulation time: 0 hr 3 min 10 sec) 
Heartbeat CPU  1 instructions:   41000002 cycles:   24132235 heartbeat IPC: 1.65872 cumulative IPC: 1.69897 (Simulation time: 0 hr 3 min 11 sec) 
Heartbeat CPU  2 instructions:   42000000 cycles:   24144952 heartbeat IPC: 1.60598 cumulative IPC: 1.73949 (Simulation time: 0 hr 3 min 11 sec) 
Heartbeat CPU  0 instructions:   41000003 cycles:   24575445 heartbeat IPC: 1.64459 cumulative IPC: 1.66833 (Simulation time: 0 hr 3 min 14 sec) 
Heartbeat CPU  2 instructions:   43000000 cycles:   24655181 heartbeat IPC: 1.95990 cumulative IPC: 1.74406 (Simulation time: 0 hr 3 min 15 sec) 
Heartbeat CPU  3 instructions:   41000003 cycles:   24707252 heartbeat IPC: 1.66098 cumulative IPC: 1.65943 (Simulation time: 0 hr 3 min 15 sec) 
Heartbeat CPU  1 instructions:   42000002 cycles:   24758219 heartbeat IPC: 1.59748 cumulative IPC: 1.69641 (Simulation time: 0 hr 3 min 16 sec) 
Heartbeat CPU  0 instructions:   42000002 cycles:   25178119 heartbeat IPC: 1.65927 cumulative IPC: 1.66812 (Simulation time: 0 hr 3 min 20 sec) 
Heartbeat CPU  2 instructions:   44000000 cycles:   25178152 heartbeat IPC: 1.91215 cumulative IPC: 1.74755 (Simulation time: 0 hr 3 min 20 sec) 
Heartbeat CPU  1 instructions:   43000003 cycles:   25206050 heartbeat IPC: 2.23299 cumulative IPC: 1.70594 (Simulation time: 0 hr 3 min 20 sec) 
Heartbeat CPU  3 instructions:   42000002 cycles:   25312304 heartbeat IPC: 1.65275 cumulative IPC: 1.65927 (Simulation time: 0 hr 3 min 21 sec) 
Heartbeat CPU  3 instructions:   43000003 cycles:   25751597 heartbeat IPC: 2.27639 cumulative IPC: 1.66980 (Simulation time: 0 hr 3 min 24 sec) 
Heartbeat CPU  0 instructions:   43000003 cycles:   25799826 heartbeat IPC: 1.60848 cumulative IPC: 1.66668 (Simulation time: 0 hr 3 min 24 sec) 
Heartbeat CPU  1 instructions:   44000000 cycles:   25829495 heartbeat IPC: 1.60399 cumulative IPC: 1.70348 (Simulation time: 0 hr 3 min 25 sec) 
Heartbeat CPU  2 instructions:   45000002 cycles:   25963808 heartbeat IPC: 1.27282 cumulative IPC: 1.73318 (Simulation time: 0 hr 3 min 26 sec) 
Heartbeat CPU  0 instructions:   44000000 cycles:   26341490 heartbeat IPC: 1.84616 cumulative IPC: 1.67037 (Simulation time: 0 hr 3 min 28 sec) 
Heartbeat CPU  3 instructions:   44000000 cycles:   26350514 heartbeat IPC: 1.66968 cumulative IPC: 1.66980 (Simulation time: 0 hr 3 min 28 sec) 
Heartbeat CPU  1 instructions:   45000002 cycles:   26437506 heartbeat IPC: 1.64471 cumulative IPC: 1.70213 (Simulation time: 0 hr 3 min 29 sec) 
Heartbeat CPU  2 instructions:   46000001 cycles:   26586067 heartbeat IPC: 1.60705 cumulative IPC: 1.73023 (Simulation time: 0 hr 3 min 30 sec) 
Heartbeat CPU  3 instructions:   45000001 cycles:   26944510 heartbeat IPC: 1.68351 cumulative IPC: 1.67010 (Simulation time: 0 hr 3 min 33 sec) 
Heartbeat CPU  1 instructions:   46000002 cycles:   27016542 heartbeat IPC: 1.72701 cumulative IPC: 1.70266 (Simulation time: 0 hr 3 min 34 sec) 
Heartbeat CPU  2 instructions:   47000000 cycles:   27040062 heartbeat IPC: 2.20267 cumulative IPC: 1.73816 (Simulation time: 0 hr 3 min 34 sec) 
Heartbeat CPU  0 instructions:   45000001 cycles:   27151752 heartbeat IPC: 1.23417 cumulative IPC: 1.65735 (Simulation time: 0 hr 3 min 35 sec) 
Heartbeat CPU  3 instructions:   46000001 cycles:   27543535 heartbeat IPC: 1.66938 cumulative IPC: 1.67008 (Simulation time: 0 hr 3 min 38 sec) 
Heartbeat CPU  0 instructions:   46000000 cycles:   27604765 heartbeat IPC: 2.20744 cumulative IPC: 1.66638 (Simulation time: 0 hr 3 min 38 sec) 
Heartbeat CPU  2 instructions:   48000000 cycles:   27639956 heartbeat IPC: 1.66696 cumulative IPC: 1.73662 (Simulation time: 0 hr 3 min 38 sec) 
Heartbeat CPU  1 instructions:   47000000 cycles:   27644744 heartbeat IPC: 1.59184 cumulative IPC: 1.70014 (Simulation time: 0 hr 3 min 38 sec) 
Heartbeat CPU  3 instructions:   47000001 cycles:   28159655 heartbeat IPC: 1.62306 cumulative IPC: 1.66905 (Simulation time: 0 hr 3 min 43 sec) 
Heartbeat CPU  1 instructions:   48000000 cycles:   28205776 heartbeat IPC: 1.78243 cumulative IPC: 1.70178 (Simulation time: 0 hr 3 min 43 sec) 
Heartbeat CPU  0 instructions:   47000003 cycles:   28207697 heartbeat IPC: 1.65857 cumulative IPC: 1.66621 (Simulation time: 0 hr 3 min 43 sec) 
Heartbeat CPU  2 instructions:   49000000 cycles:   28238293 heartbeat IPC: 1.67130 cumulative IPC: 1.73523 (Simulation time: 0 hr 3 min 43 sec) 
Heartbeat CPU  1 instructions:   49000000 cycles:   28729431 heartbeat IPC: 1.90965 cumulative IPC: 1.70557 (Simulation time: 0 hr 3 min 47 sec) 
Heartbeat CPU  0 instructions:   48000000 cycles:   28809914 heartbeat IPC: 1.66053 cumulative IPC: 1.66609 (Simulation time: 0 hr 3 min 48 sec) 
Heartbeat CPU  2 instructions:   50000001 cycles:   28835945 heartbeat IPC: 1.67322 cumulative IPC: 1.73395 (Simulation time: 0 hr 3 min 48 sec) 
Heartbeat CPU  3 instructions:   48000000 cycles:   28865950 heartbeat IPC: 1.41584 cumulative IPC: 1.66286 (Simulation time: 0 hr 3 min 48 sec) 
Heartbeat CPU  1 instructions:   50000000 cycles:   29271337 heartbeat IPC: 1.84534 cumulative IPC: 1.70816 (Simulation time: 0 hr 3 min 51 sec) 
Heartbeat CPU  3 instructions:   49000000 cycles:   29373629 heartbeat IPC: 1.96975 cumulative IPC: 1.66816 (Simulation time: 0 hr 3 min 52 sec) 
Heartbeat CPU  0 instructions:   49000000 cycles:   29411860 heartbeat IPC: 1.66128 cumulative IPC: 1.66599 (Simulation time: 0 hr 3 min 52 sec) 
Heartbeat CPU  2 instructions:   51000000 cycles:   29433372 heartbeat IPC: 1.67384 cumulative IPC: 0.03398 (Simulation time: 0 hr 3 min 53 sec) 
Heartbeat CPU  1 instructions:   51000001 cycles:   29810833 heartbeat IPC: 1.85358 cumulative IPC: 0.03354 (Simulation time: 0 hr 3 min 55 sec) 
Heartbeat CPU  3 instructions:   50000000 cycles:   29970646 heartbeat IPC: 1.67499 cumulative IPC: 1.66830 (Simulation time: 0 hr 3 min 57 sec) 
Heartbeat CPU  0 instructions:   50000003 cycles:   30013546 heartbeat IPC: 1.66200 cumulative IPC: 1.66591 (Simulation time: 0 hr 3 min 57 sec) 

Warmup complete CPU  0 instructions:   50000003 cycles:   30013546 (Simulation time: 0 hr 3 min 57 sec) 
Warmup complete CPU  1 instructions:   51380031 cycles:   30013545 (Simulation time: 0 hr 3 min 57 sec) 
Warmup complete CPU  2 instructions:   51956063 cycles:   30013545 (Simulation time: 0 hr 3 min 57 sec) 
Warmup complete CPU  3 instructions:   50071299 cycles:   30013545 (Simulation time: 0 hr 3 min 57 sec) 

Heartbeat CPU  2 instructions:   52000000 cycles:   30156070 heartbeat IPC: 1.38370 cumulative IPC: 0.30828 (Simulation time: 0 hr 3 min 57 sec) 
Heartbeat CPU  1 instructions:   52000000 cycles:   31088226 heartbeat IPC: 0.78284 cumulative IPC: 0.57689 (Simulation time: 0 hr 4 min 0 sec) 
Heartbeat CPU  3 instructions:   51000001 cycles:   33023331 heartbeat IPC: 0.32758 cumulative IPC: 0.30856 (Simulation time: 0 hr 4 min 4 sec) 
Heartbeat CPU  2 instructions:   53000001 cycles:   33146449 heartbeat IPC: 0.33441 cumulative IPC: 0.33322 (Simulation time: 0 hr 4 min 5 sec) 
Heartbeat CPU  0 instructions:   51000002 cycles:   33384030 heartbeat IPC: 0.29669 cumulative IPC: 0.29669 (Simulation time: 0 hr 4 min 5 sec) 
Heartbeat CPU  1 instructions:   53000003 cycles:   33507835 heartbeat IPC: 0.41329 cumulative IPC: 0.46361 (Simulation time: 0 hr 4 min 5 sec) 
Heartbeat CPU  2 instructions:   54000002 cycles:   36002995 heartbeat IPC: 0.35007 cumulative IPC: 0.34126 (Simulation time: 0 hr 4 min 11 sec) 
Heartbeat CPU  3 instructions:   52000000 cycles:   36270030 heartbeat IPC: 0.30800 cumulative IPC: 0.30827 (Simulation time: 0 hr 4 min 12 sec) 
Heartbeat CPU  0 instructions:   52000000 cycles:   36272515 heartbeat IPC: 0.34620 cumulative IPC: 0.31954 (Simulation time: 0 hr 4 min 12 sec) 
Heartbeat CPU  1 instructions:   54000000 cycles:   37205270 heartbeat IPC: 0.27046 cumulative IPC: 0.36430 (Simulation time: 0 hr 4 min 14 sec) 
Heartbeat CPU  2 instructions:   55000001 cycles:   38782563 heartbeat IPC: 0.35977 cumulative IPC: 0.34712 (Simulation time: 0 hr 4 min 17 sec) 
Heartbeat CPU  0 instructions:   53000002 cycles:   39276686 heartbeat IPC: 0.33287 cumulative IPC: 0.32386 (Simulation time: 0 hr 4 min 18 sec) 
Heartbeat CPU  3 instructions:   53000001 cycles:   39568558 heartbeat IPC: 0.30317 cumulative IPC: 0.30651 (Simulation time: 0 hr 4 min 19 sec) 
Heartbeat CPU  1 instructions:   55000003 cycles:   40706322 heartbeat IPC: 0.28563 cumulative IPC: 0.33854 (Simulation time: 0 hr 4 min 21 sec) 
Heartbeat CPU  2 instructions:   56000000 cycles:   42169838 heartbeat IPC: 0.29522 cumulative IPC: 0.33266 (Simulation time: 0 hr 4 min 24 sec) 
Heartbeat CPU  0 instructions:   54000003 cycles:   42347591 heartbeat IPC: 0.32564 cumulative IPC: 0.32431 (Simulation time: 0 hr 4 min 25 sec) 
Heartbeat CPU  3 instructions:   54000000 cycles:   42819793 heartbeat IPC: 0.30758 cumulative IPC: 0.30678 (Simulation time: 0 hr 4 min 26 sec) 
Heartbeat CPU  1 instructions:   56000000 cycles:   43992540 heartbeat IPC: 0.30430 cumulative IPC: 0.33049 (Simulation time: 0 hr 4 min 29 sec) 
Heartbeat CPU  2 instructions:   57000000 cycles:   45141474 heartbeat IPC: 0.33651 cumulative IPC: 0.33342 (Simulation time: 0 hr 4 min 32 sec) 
Heartbeat CPU  0 instructions:   55000000 cycles:   45465477 heartbeat IPC: 0.32073 cumulative IPC: 0.32358 (Simulation time: 0 hr 4 min 33 sec) 
Heartbeat CPU  3 instructions:   55000003 cycles:   45739537 heartbeat IPC: 0.34250 cumulative IPC: 0.31341 (Simulation time: 0 hr 4 min 33 sec) 
Heartbeat CPU  1 instructions:   57000002 cycles:   46171218 heartbeat IPC: 0.45899 cumulative IPC: 0.34782 (Simulation time: 0 hr 4 min 35 sec) 
Heartbeat CPU  2 instructions:   58000002 cycles:   47151711 heartbeat IPC: 0.49745 cumulative IPC: 0.35266 (Simulation time: 0 hr 4 min 37 sec) 
Heartbeat CPU  0 instructions:   56000000 cycles:   48492151 heartbeat IPC: 0.33040 cumulative IPC: 0.32470 (Simulation time: 0 hr 4 min 40 sec) 
Heartbeat CPU  1 instructions:   58000003 cycles:   48922233 heartbeat IPC: 0.36350 cumulative IPC: 0.35010 (Simulation time: 0 hr 4 min 41 sec) 
Heartbeat CPU  3 instructions:   56000000 cycles:   49561631 heartbeat IPC: 0.26164 cumulative IPC: 0.30329 (Simulation time: 0 hr 4 min 43 sec) 
Heartbeat CPU  2 instructions:   59000003 cycles:   50478655 heartbeat IPC: 0.30058 cumulative IPC: 0.34419 (Simulation time: 0 hr 4 min 44 sec) 
Heartbeat CPU  0 instructions:   57000000 cycles:   51502072 heartbeat IPC: 0.33223 cumulative IPC: 0.32576 (Simulation time: 0 hr 4 min 47 sec) 
Heartbeat CPU  1 instructions:   59000002 cycles:   51879857 heartbeat IPC: 0.33811 cumulative IPC: 0.34848 (Simulation time: 0 hr 4 min 47 sec) 
Heartbeat CPU  3 instructions:   57000003 cycles:   53491608 heartbeat IPC: 0.25446 cumulative IPC: 0.29511 (Simulation time: 0 hr 4 min 51 sec) 
Heartbeat CPU  2 instructions:   60000000 cycles:   53849300 heartbeat IPC: 0.29668 cumulative IPC: 0.33747 (Simulation time: 0 hr 4 min 52 sec) 
Heartbeat CPU  0 instructions:   58000003 cycles:   54589951 heartbeat IPC: 0.32385 cumulative IPC: 0.32552 (Simulation time: 0 hr 4 min 53 sec) 
Heartbeat CPU  1 instructions:   60000000 cycles:   54983919 heartbeat IPC: 0.32216 cumulative IPC: 0.34521 (Simulation time: 0 hr 4 min 54 sec) 
Heartbeat CPU  3 instructions:   58000002 cycles:   56249252 heartbeat IPC: 0.36263 cumulative IPC: 0.30221 (Simulation time: 0 hr 4 min 57 sec) 
Heartbeat CPU  2 instructions:   61000001 cycles:   57366039 heartbeat IPC: 0.28435 cumulative IPC: 0.33064 (Simulation time: 0 hr 5 min 0 sec) 
Heartbeat CPU  0 instructions:   59000000 cycles:   57640744 heartbeat IPC: 0.32778 cumulative IPC: 0.32577 (Simulation time: 0 hr 5 min 0 sec) 
Heartbeat CPU  1 instructions:   61000003 cycles:   58108433 heartbeat IPC: 0.32005 cumulative IPC: 0.34241 (Simulation time: 0 hr 5 min 2 sec) 
Heartbeat CPU  3 instructions:   59000002 cycles:   58216681 heartbeat IPC: 0.50828 cumulative IPC: 0.31659 (Simulation time: 0 hr 5 min 2 sec) 
Heartbeat CPU  1 instructions:   62000002 cycles:   60291557 heartbeat IPC: 0.45806 cumulative IPC: 0.35075 (Simulation time: 0 hr 5 min 7 sec) 
Heartbeat CPU  2 instructions:   62000002 cycles:   60833601 heartbeat IPC: 0.28839 cumulative IPC: 0.32589 (Simulation time: 0 hr 5 min 8 sec) 
Heartbeat CPU  0 instructions:   60000000 cycles:   60899307 heartbeat IPC: 0.30688 cumulative IPC: 0.32377 (Simulation time: 0 hr 5 min 8 sec) 
Heartbeat CPU  3 instructions:   60000000 cycles:   61618128 heartbeat IPC: 0.29399 cumulative IPC: 0.31415 (Simulation time: 0 hr 5 min 10 sec) 
Heartbeat CPU  1 instructions:   63000000 cycles:   62377471 heartbeat IPC: 0.47941 cumulative IPC: 0.35904 (Simulation time: 0 hr 5 min 12 sec) 
Heartbeat CPU  0 instructions:   61000000 cycles:   63313953 heartbeat IPC: 0.41414 cumulative IPC: 0.33033 (Simulation time: 0 hr 5 min 14 sec) 
Heartbeat CPU  2 instructions:   63000000 cycles:   64263306 heartbeat IPC: 0.29157 cumulative IPC: 0.32245 (Simulation time: 0 hr 5 min 17 sec) 
Heartbeat CPU  1 instructions:   64000000 cycles:   64340381 heartbeat IPC: 0.50945 cumulative IPC: 0.36764 (Simulation time: 0 hr 5 min 17 sec) 
Heartbeat CPU  3 instructions:   61000003 cycles:   64936006 heartbeat IPC: 0.30140 cumulative IPC: 0.31294 (Simulation time: 0 hr 5 min 18 sec) 
Heartbeat CPU  0 instructions:   62000000 cycles:   66286187 heartbeat IPC: 0.33645 cumulative IPC: 0.33083 (Simulation time: 0 hr 5 min 22 sec) 
Heartbeat CPU  1 instructions:   65000000 cycles:   66411272 heartbeat IPC: 0.48288 cumulative IPC: 0.37420 (Simulation time: 0 hr 5 min 22 sec) 
Heartbeat CPU  2 instructions:   64000000 cycles:   66862774 heartbeat IPC: 0.38469 cumulative IPC: 0.32684 (Simulation time: 0 hr 5 min 24 sec) 
Heartbeat CPU  3 instructions:   62000001 cycles:   68215043 heartbeat IPC: 0.30497 cumulative IPC: 0.31226 (Simulation time: 0 hr 5 min 27 sec) 
Heartbeat CPU  2 instructions:   65000002 cycles:   68698349 heartbeat IPC: 0.54479 cumulative IPC: 0.33719 (Simulation time: 0 hr 5 min 29 sec) 
Heartbeat CPU  1 instructions:   66000000 cycles:   68817210 heartbeat IPC: 0.41564 cumulative IPC: 0.37677 (Simulation time: 0 hr 5 min 29 sec) 
Heartbeat CPU  0 instructions:   63000001 cycles:   69071467 heartbeat IPC: 0.35903 cumulative IPC: 0.33284 (Simulation time: 0 hr 5 min 30 sec) 
Heartbeat CPU  2 instructions:   66000001 cycles:   70748946 heartbeat IPC: 0.48766 cumulative IPC: 0.34476 (Simulation time: 0 hr 5 min 34 sec) 
Heartbeat CPU  3 instructions:   63000003 cycles:   71540483 heartbeat IPC: 0.30071 cumulative IPC: 0.31133 (Simulation time: 0 hr 5 min 36 sec) 
Heartbeat CPU  1 instructions:   67000002 cycles:   71564188 heartbeat IPC: 0.36404 cumulative IPC: 0.37593 (Simulation time: 0 hr 5 min 36 sec) 
Heartbeat CPU  0 instructions:   64000000 cycles:   71648896 heartbeat IPC: 0.38798 cumulative IPC: 0.33625 (Simulation time: 0 hr 5 min 36 sec) 
Heartbeat CPU  2 instructions:   67000000 cycles:   73892333 heartbeat IPC: 0.31813 cumulative IPC: 0.34285 (Simulation time: 0 hr 5 min 41 sec) 
Heartbeat CPU  0 instructions:   65000003 cycles:   74422542 heartbeat IPC: 0.36054 cumulative IPC: 0.33777 (Simulation time: 0 hr 5 min 42 sec) 
Heartbeat CPU  1 instructions:   68000000 cycles:   74734006 heartbeat IPC: 0.31547 cumulative IPC: 0.37164 (Simulation time: 0 hr 5 min 43 sec) 
Heartbeat CPU  3 instructions:   64000000 cycles:   74924603 heartbeat IPC: 0.29550 cumulative IPC: 0.31014 (Simulation time: 0 hr 5 min 43 sec) 
Heartbeat CPU  2 instructions:   68000000 cycles:   76348559 heartbeat IPC: 0.40713 cumulative IPC: 0.34626 (Simulation time: 0 hr 5 min 47 sec) 
Heartbeat CPU  1 instructions:   69000003 cycles:   76844688 heartbeat IPC: 0.47378 cumulative IPC: 0.37624 (Simulation time: 0 hr 5 min 49 sec) 
Heartbeat CPU  0 instructions:   66000001 cycles:   77079785 heartbeat IPC: 0.37633 cumulative IPC: 0.33995 (Simulation time: 0 hr 5 min 49 sec) 
Heartbeat CPU  3 instructions:   65000002 cycles:   78355229 heartbeat IPC: 0.29149 cumulative IPC: 0.30882 (Simulation time: 0 hr 5 min 52 sec) 
Heartbeat CPU  1 instructions:   70000003 cycles:   78880410 heartbeat IPC: 0.49123 cumulative IPC: 0.38103 (Simulation time: 0 hr 5 min 54 sec) 
Heartbeat CPU  2 instructions:   69000001 cycles:   79713274 heartbeat IPC: 0.29720 cumulative IPC: 0.34294 (Simulation time: 0 hr 5 min 56 sec) 
Heartbeat CPU  0 instructions:   67000002 cycles:   79841052 heartbeat IPC: 0.36215 cumulative IPC: 0.34118 (Simulation time: 0 hr 5 min 57 sec) 
Heartbeat CPU  3 instructions:   66000002 cycles:   80551055 heartbeat IPC: 0.45541 cumulative IPC: 0.31519 (Simulation time: 0 hr 5 min 58 sec) 
Heartbeat CPU  1 instructions:   71000000 cycles:   80915937 heartbeat IPC: 0.49127 cumulative IPC: 0.38544 (Simulation time: 0 hr 5 min 59 sec) 
Heartbeat CPU  1 instructions:   72000000 cycles:   82882857 heartbeat IPC: 0.50841 cumulative IPC: 0.39002 (Simulation time: 0 hr 6 min 4 sec) 
Heartbeat CPU  3 instructions:   67000000 cycles:   83076790 heartbeat IPC: 0.39592 cumulative IPC: 0.31903 (Simulation time: 0 hr 6 min 5 sec) 
Heartbeat CPU  2 instructions:   70000002 cycles:   83364635 heartbeat IPC: 0.27387 cumulative IPC: 0.33821 (Simulation time: 0 hr 6 min 5 sec) 
Heartbeat CPU  0 instructions:   68000000 cycles:   83600678 heartbeat IPC: 0.26598 cumulative IPC: 0.33590 (Simulation time: 0 hr 6 min 6 sec) 
Heartbeat CPU  1 instructions:   73000001 cycles:   84913632 heartbeat IPC: 0.49242 cumulative IPC: 0.39381 (Simulation time: 0 hr 6 min 10 sec) 
Heartbeat CPU  3 instructions:   68000000 cycles:   85478108 heartbeat IPC: 0.41644 cumulative IPC: 0.32325 (Simulation time: 0 hr 6 min 11 sec) 
Heartbeat CPU  0 instructions:   69000001 cycles:   86063811 heartbeat IPC: 0.40599 cumulative IPC: 0.33898 (Simulation time: 0 hr 6 min 13 sec) 
Heartbeat CPU  2 instructions:   71000001 cycles:   86975492 heartbeat IPC: 0.27694 cumulative IPC: 0.33433 (Simulation time: 0 hr 6 min 16 sec) 
Heartbeat CPU  1 instructions:   74000003 cycles:   87181974 heartbeat IPC: 0.44085 cumulative IPC: 0.39567 (Simulation time: 0 hr 6 min 16 sec) 
Heartbeat CPU  0 instructions:   70000003 cycles:   87899005 heartbeat IPC: 0.54490 cumulative IPC: 0.34551 (Simulation time: 0 hr 6 min 18 sec) 
Heartbeat CPU  3 instructions:   69000002 cycles:   87926242 heartbeat IPC: 0.40848 cumulative IPC: 0.32685 (Simulation time: 0 hr 6 min 18 sec) 
Heartbeat CPU  1 instructions:   75000000 cycles:   89971466 heartbeat IPC: 0.35849 cumulative IPC: 0.39394 (Simulation time: 0 hr 6 min 22 sec) 
Heartbeat CPU  2 instructions:   72000000 cycles:   90492470 heartbeat IPC: 0.28433 cumulative IPC: 0.33142 (Simulation time: 0 hr 6 min 23 sec) 
Heartbeat CPU  0 instructions:   71000003 cycles:   90900923 heartbeat IPC: 0.33312 cumulative IPC: 0.34490 (Simulation time: 0 hr 6 min 24 sec) 
Heartbeat CPU  3 instructions:   70000001 cycles:   90931978 heartbeat IPC: 0.33270 cumulative IPC: 0.32714 (Simulation time: 0 hr 6 min 24 sec) 
Heartbeat CPU  1 instructions:   76000000 cycles:   92734919 heartbeat IPC: 0.36187 cumulative IPC: 0.39253 (Simulation time: 0 hr 6 min 28 sec) 
Heartbeat CPU  2 instructions:   73000002 cycles:   94090920 heartbeat IPC: 0.27790 cumulative IPC: 0.32841 (Simulation time: 0 hr 6 min 31 sec) 
Heartbeat CPU  3 instructions:   71000000 cycles:   94092190 heartbeat IPC: 0.31643 cumulative IPC: 0.32661 (Simulation time: 0 hr 6 min 31 sec) 
Heartbeat CPU  0 instructions:   72000000 cycles:   94181994 heartbeat IPC: 0.30478 cumulative IPC: 0.34285 (Simulation time: 0 hr 6 min 31 sec) 
Heartbeat CPU  1 instructions:   77000000 cycles:   96421408 heartbeat IPC: 0.27126 cumulative IPC: 0.38580 (Simulation time: 0 hr 6 min 36 sec) 
Heartbeat CPU  2 instructions:   74000000 cycles:   96864617 heartbeat IPC: 0.36053 cumulative IPC: 0.32975 (Simulation time: 0 hr 6 min 37 sec) 
Heartbeat CPU  3 instructions:   72000000 cycles:   97046045 heartbeat IPC: 0.33854 cumulative IPC: 0.32714 (Simulation time: 0 hr 6 min 38 sec) 
Heartbeat CPU  0 instructions:   73000003 cycles:   97466032 heartbeat IPC: 0.30450 cumulative IPC: 0.34098 (Simulation time: 0 hr 6 min 38 sec) 
DEADLOCK! CPU 3 instr_id: 72005343 translated: 2 fetched: 2 scheduled: 2 executed: 1 is_memory: 1 event: 97053878 current: 98053878

Load Queue Entry
[LQ] entry: 0 instr_id: 0 address: 0 translated: 0 fetched: 0
[LQ] entry: 1 instr_id: 0 address: 0 translated: 0 fetched: 0
[LQ] entry: 2 instr_id: 0 address: 0 translated: 0 fetched: 0
[LQ] entry: 3 instr_id: 0 address: 0 translated: 0 fetched: 0
[LQ] entry: 4 instr_id: 72005343 address: aa4a5be80040 translated: 2 fetched: 0
[LQ] entry: 5 instr_id: 0 address: 0 translated: 0 fetched: 0
[LQ] entry: 6 instr_id: 0 address: 0 translated: 0 fetched: 0
[LQ] entry: 7 instr_id: 0 address: 0 translated: 0 fetched: 0
[LQ] entry: 8 instr_id: 0 address: 0 translated: 0 fetched: 0
[LQ] entry: 9 instr_id: 0 address: 0 translated: 0 fetched: 0
[LQ] entry: 10 instr_id: 0 address: 0 translated: 0 fetched: 0
[LQ] entry: 11 instr_id: 0 address: 0 translated: 0 fetched: 0
[LQ] entry: 12 instr_id: 0 address: 0 translated: 0 fetched: 0
[LQ] entry: 13 instr_id: 0 address: 0 translated: 0 fetched: 0
[LQ] entry: 14 instr_id: 0 address: 0 translated: 0 fetched: 0
[LQ] entry: 15 instr_id: 0 address: 0 translated: 0 fetched: 0
[LQ] entry: 16 instr_id: 0 address: 0 translated: 0 fetched: 0
[LQ] entry: 17 instr_id: 0 address: 0 translated: 0 fetched: 0
[LQ] entry: 18 instr_id: 0 address: 0 translated: 0 fetched: 0
[LQ] entry: 19 instr_id: 0 address: 0 translated: 0 fetched: 0
[LQ] entry: 20 instr_id: 0 address: 0 translated: 0 fetched: 0
[LQ] entry: 21 instr_id: 0 address: 0 translated: 0 fetched: 0
[LQ] entry: 22 instr_id: 0 address: 0 translated: 0 fetched: 0
[LQ] entry: 23 instr_id: 0 address: 0 translated: 0 fetched: 0
[LQ] entry: 24 instr_id: 0 address: 0 translated: 0 fetched: 0
[LQ] entry: 25 instr_id: 0 address: 0 translated: 0 fetched: 0
[LQ] entry: 26 instr_id: 0 address: 0 translated: 0 fetched: 0
[LQ] entry: 27 instr_id: 0 address: 0 translated: 0 fetched: 0
[LQ] entry: 28 instr_id: 0 address: 0 translated: 0 fetched: 0
[LQ] entry: 29 instr_id: 0 address: 0 translated: 0 fetched: 0
[LQ] entry: 30 instr_id: 0 address: 0 translated: 0 fetched: 0
[LQ] entry: 31 instr_id: 0 address: 0 translated: 0 fetched: 0
[LQ] entry: 32 instr_id: 0 address: 0 translated: 0 fetched: 0
[LQ] entry: 33 instr_id: 0 address: 0 translated: 0 fetched: 0
[LQ] entry: 34 instr_id: 0 address: 0 translated: 0 fetched: 0
[LQ] entry: 35 instr_id: 0 address: 0 translated: 0 fetched: 0
[LQ] entry: 36 instr_id: 0 address: 0 translated: 0 fetched: 0
[LQ] entry: 37 instr_id: 0 address: 0 translated: 0 fetched: 0
[LQ] entry: 38 instr_id: 0 address: 0 translated: 0 fetched: 0
[LQ] entry: 39 instr_id: 0 address: 0 translated: 0 fetched: 0
[LQ] entry: 40 instr_id: 0 address: 0 translated: 0 fetched: 0
[LQ] entry: 41 instr_id: 0 address: 0 translated: 0 fetched: 0
[LQ] entry: 42 instr_id: 0 address: 0 translated: 0 fetched: 0
[LQ] entry: 43 instr_id: 0 address: 0 translated: 0 fetched: 0
[LQ] entry: 44 instr_id: 0 address: 0 translated: 0 fetched: 0
[LQ] entry: 45 instr_id: 0 address: 0 translated: 0 fetched: 0
[LQ] entry: 46 instr_id: 0 address: 0 translated: 0 fetched: 0
[LQ] entry: 47 instr_id: 0 address: 0 translated: 0 fetched: 0
[LQ] entry: 48 instr_id: 0 address: 0 translated: 0 fetched: 0
[LQ] entry: 49 instr_id: 0 address: 0 translated: 0 fetched: 0
[LQ] entry: 50 instr_id: 0 address: 0 translated: 0 fetched: 0
[LQ] entry: 51 instr_id: 0 address: 0 translated: 0 fetched: 0
[LQ] entry: 52 instr_id: 0 address: 0 translated: 0 fetched: 0
[LQ] entry: 53 instr_id: 0 address: 0 translated: 0 fetched: 0
[LQ] entry: 54 instr_id: 0 address: 0 translated: 0 fetched: 0
[LQ] entry: 55 instr_id: 0 address: 0 translated: 0 fetched: 0
[LQ] entry: 56 instr_id: 0 address: 0 translated: 0 fetched: 0
[LQ] entry: 57 instr_id: 0 address: 0 translated: 0 fetched: 0
[LQ] entry: 58 instr_id: 0 address: 0 translated: 0 fetched: 0
[LQ] entry: 59 instr_id: 0 address: 0 translated: 0 fetched: 0
[LQ] entry: 60 instr_id: 0 address: 0 translated: 0 fetched: 0
[LQ] entry: 61 instr_id: 0 address: 0 translated: 0 fetched: 0
[LQ] entry: 62 instr_id: 0 address: 0 translated: 0 fetched: 0
[LQ] entry: 63 instr_id: 0 address: 0 translated: 0 fetched: 0
[LQ] entry: 64 instr_id: 0 address: 0 translated: 0 fetched: 0
[LQ] entry: 65 instr_id: 0 address: 0 translated: 0 fetched: 0
[LQ] entry: 66 instr_id: 0 address: 0 translated: 0 fetched: 0
[LQ] entry: 67 instr_id: 0 address: 0 translated: 0 fetched: 0
[LQ] entry: 68 instr_id: 0 address: 0 translated: 0 fetched: 0
[LQ] entry: 69 instr_id: 0 address: 0 translated: 0 fetched: 0
[LQ] entry: 70 instr_id: 0 address: 0 translated: 0 fetched: 0
[LQ] entry: 71 instr_id: 0 address: 0 translated: 0 fetched: 0

Store Queue Entry
[SQ] entry: 0 instr_id: 0 address: 0 translated: 0 fetched: 0
[SQ] entry: 1 instr_id: 0 address: 0 translated: 0 fetched: 0
[SQ] entry: 2 instr_id: 0 address: 0 translated: 0 fetched: 0
[SQ] entry: 3 instr_id: 0 address: 0 translated: 0 fetched: 0
[SQ] entry: 4 instr_id: 0 address: 0 translated: 0 fetched: 0
[SQ] entry: 5 instr_id: 72005346 address: c48ca8f627f0 translated: 2 fetched: 0
[SQ] entry: 6 instr_id: 72005364 address: aa4a5be7ddcc translated: 2 fetched: 0
[SQ] entry: 7 instr_id: 0 address: 0 translated: 0 fetched: 0
[SQ] entry: 8 instr_id: 0 address: 0 translated: 0 fetched: 0
[SQ] entry: 9 instr_id: 0 address: 0 translated: 0 fetched: 0
[SQ] entry: 10 instr_id: 0 address: 0 translated: 0 fetched: 0
[SQ] entry: 11 instr_id: 0 address: 0 translated: 0 fetched: 0
[SQ] entry: 12 instr_id: 0 address: 0 translated: 0 fetched: 0
[SQ] entry: 13 instr_id: 0 address: 0 translated: 0 fetched: 0
[SQ] entry: 14 instr_id: 0 address: 0 translated: 0 fetched: 0
[SQ] entry: 15 instr_id: 0 address: 0 translated: 0 fetched: 0
[SQ] entry: 16 instr_id: 0 address: 0 translated: 0 fetched: 0
[SQ] entry: 17 instr_id: 0 address: 0 translated: 0 fetched: 0
[SQ] entry: 18 instr_id: 0 address: 0 translated: 0 fetched: 0
[SQ] entry: 19 instr_id: 0 address: 0 translated: 0 fetched: 0
[SQ] entry: 20 instr_id: 0 address: 0 translated: 0 fetched: 0
[SQ] entry: 21 instr_id: 0 address: 0 translated: 0 fetched: 0
[SQ] entry: 22 instr_id: 0 address: 0 translated: 0 fetched: 0
[SQ] entry: 23 instr_id: 0 address: 0 translated: 0 fetched: 0
[SQ] entry: 24 instr_id: 0 address: 0 translated: 0 fetched: 0
[SQ] entry: 25 instr_id: 0 address: 0 translated: 0 fetched: 0
[SQ] entry: 26 instr_id: 0 address: 0 translated: 0 fetched: 0
[SQ] entry: 27 instr_id: 0 address: 0 translated: 0 fetched: 0
[SQ] entry: 28 instr_id: 0 address: 0 translated: 0 fetched: 0
[SQ] entry: 29 instr_id: 0 address: 0 translated: 0 fetched: 0
[SQ] entry: 30 instr_id: 0 address: 0 translated: 0 fetched: 0
[SQ] entry: 31 instr_id: 0 address: 0 translated: 0 fetched: 0
[SQ] entry: 32 instr_id: 0 address: 0 translated: 0 fetched: 0
[SQ] entry: 33 instr_id: 0 address: 0 translated: 0 fetched: 0
[SQ] entry: 34 instr_id: 0 address: 0 translated: 0 fetched: 0
[SQ] entry: 35 instr_id: 0 address: 0 translated: 0 fetched: 0
[SQ] entry: 36 instr_id: 0 address: 0 translated: 0 fetched: 0
[SQ] entry: 37 instr_id: 0 address: 0 translated: 0 fetched: 0
[SQ] entry: 38 instr_id: 0 address: 0 translated: 0 fetched: 0
[SQ] entry: 39 instr_id: 0 address: 0 translated: 0 fetched: 0
[SQ] entry: 40 instr_id: 0 address: 0 translated: 0 fetched: 0
[SQ] entry: 41 instr_id: 0 address: 0 translated: 0 fetched: 0
[SQ] entry: 42 instr_id: 0 address: 0 translated: 0 fetched: 0
[SQ] entry: 43 instr_id: 0 address: 0 translated: 0 fetched: 0
[SQ] entry: 44 instr_id: 0 address: 0 translated: 0 fetched: 0
[SQ] entry: 45 instr_id: 0 address: 0 translated: 0 fetched: 0
[SQ] entry: 46 instr_id: 0 address: 0 translated: 0 fetched: 0
[SQ] entry: 47 instr_id: 0 address: 0 translated: 0 fetched: 0
[SQ] entry: 48 instr_id: 0 address: 0 translated: 0 fetched: 0
[SQ] entry: 49 instr_id: 0 address: 0 translated: 0 fetched: 0
[SQ] entry: 50 instr_id: 0 address: 0 translated: 0 fetched: 0
[SQ] entry: 51 instr_id: 0 address: 0 translated: 0 fetched: 0
[SQ] entry: 52 instr_id: 0 address: 0 translated: 0 fetched: 0
[SQ] entry: 53 instr_id: 0 address: 0 translated: 0 fetched: 0
[SQ] entry: 54 instr_id: 0 address: 0 translated: 0 fetched: 0
[SQ] entry: 55 instr_id: 0 address: 0 translated: 0 fetched: 0

L1D_MSHR Entry
[L1D_MSHR] entry: 0 instr_id: 72005343 rob_index: 223 address: 2a9296fa001 full_addr: aa4a5be80040 type: 0 fill_level: 1 lq_index: 4 sq_index: 0
[L1D_MSHR] entry: 1 instr_id: 0 rob_index: -1 address: 0 full_addr: 0 type: 0 fill_level: -1 lq_index: 0 sq_index: 0
[L1D_MSHR] entry: 2 instr_id: 0 rob_index: -1 address: 0 full_addr: 0 type: 0 fill_level: -1 lq_index: 0 sq_index: 0
[L1D_MSHR] entry: 3 instr_id: 0 rob_index: -1 address: 0 full_addr: 0 type: 0 fill_level: -1 lq_index: 0 sq_index: 0
[L1D_MSHR] entry: 4 instr_id: 0 rob_index: -1 address: 0 full_addr: 0 type: 0 fill_level: -1 lq_index: 0 sq_index: 0
[L1D_MSHR] entry: 5 instr_id: 0 rob_index: -1 address: 0 full_addr: 0 type: 0 fill_level: -1 lq_index: 0 sq_index: 0
[L1D_MSHR] entry: 6 instr_id: 0 rob_index: -1 address: 0 full_addr: 0 type: 0 fill_level: -1 lq_index: 0 sq_index: 0
[L1D_MSHR] entry: 7 instr_id: 0 rob_index: -1 address: 0 full_addr: 0 type: 0 fill_level: -1 lq_index: 0 sq_index: 0
[L1D_MSHR] entry: 8 instr_id: 0 rob_index: -1 address: 0 full_addr: 0 type: 0 fill_level: -1 lq_index: 0 sq_index: 0
[L1D_MSHR] entry: 9 instr_id: 0 rob_index: -1 address: 0 full_addr: 0 type: 0 fill_level: -1 lq_index: 0 sq_index: 0
[L1D_MSHR] entry: 10 instr_id: 0 rob_index: -1 address: 0 full_addr: 0 type: 0 fill_level: -1 lq_index: 0 sq_index: 0
[L1D_MSHR] entry: 11 instr_id: 0 rob_index: -1 address: 0 full_addr: 0 type: 0 fill_level: -1 lq_index: 0 sq_index: 0
[L1D_MSHR] entry: 12 instr_id: 0 rob_index: -1 address: 0 full_addr: 0 type: 0 fill_level: -1 lq_index: 0 sq_index: 0
[L1D_MSHR] entry: 13 instr_id: 0 rob_index: -1 address: 0 full_addr: 0 type: 0 fill_level: -1 lq_index: 0 sq_index: 0
[L1D_MSHR] entry: 14 instr_id: 0 rob_index: -1 address: 0 full_addr: 0 type: 0 fill_level: -1 lq_index: 0 sq_index: 0
[L1D_MSHR] entry: 15 instr_id: 0 rob_index: -1 address: 0 full_addr: 0 type: 0 fill_level: -1 lq_index: 0 sq_index: 0
bimodal-no-coop_pythia-no-lru-4core: src/main.cc:323: void print_deadlock(uint32_t): Assertion `0' failed.
