*************************************************
   ChampSim Multicore Out-of-Order Simulator
   Last compiled: Mar 31 2025 20:14:32
*************************************************
parsing config file: /data3/config/mlop.ini

trace_0 /data3/STREAMING/traces/streaming_phase5_core0.trace.xz
trace_1 /data3/STREAMING/traces/streaming_phase5_core1.trace.xz
trace_2 /data3/STREAMING/traces/streaming_phase5_core2.trace.xz
trace_3 /data3/STREAMING/traces/streaming_phase5_core3.trace.xz
adding L2C_PREFETCHER: MLOP
adding L2C_PREFETCHER: MLOP
adding L2C_PREFETCHER: MLOP
adding L2C_PREFETCHER: MLOP
Initialize SHIP state
warmup_instructions 50000000
simulation_instructions 150000000
champsim_seed 8866
measure_ipc 0
measure_ipc_epoch 1000
measure_dram_bw 1
measure_dram_bw_epoch 256
measure_cache_acc 1
measure_cache_acc_epoch 1024
l1d_perfect 0
l2c_perfect 0
llc_perfect 0
l1d_semi_perfect 0
l2c_semi_perfect 0
llc_semi_perfect 0
semi_perfect_cache_page_buffer_size 64

num_cpus 4
cpu_freq 4000
dram_io_freq 2400
page_size 4096
block_size 64
max_read_per_cycle 8
max_fill_per_cycle 1
dram_channels 2
log2_dram_channels 1
dram_ranks 1
dram_banks 8
dram_rows 65536
dram_columns 128
dram_row_size 8
dram_size 8192
dram_pages 2097152

fetch_width 6
decode_width 6
exec_width 4
lq_width 2
sq_width 2
retire_width 4
scheduler_size 128
branch_mispredict_penalty 20
rob_size 256
lq_size 72
sq_size 56
num_instr_destinations_sparc 4
num_instr_destinations 2
num_instr_sources 4

itlb_set 16
itlb_way 8
itlb_rq_size 16
itlb_wq_size 16
itlb_pq_size 0
itlb_mshr_size 8
itlb_latency 1

dtlb_set 16
dtlb_way 4
dtlb_rq_size 16
dtlb_wq_size 16
dtlb_pq_size 0
dtlb_mshr_size 8
dtlb_latency 1

stlb_set 128
stlb_way 12
stlb_rq_size 32
stlb_wq_size 32
stlb_pq_size 0
stlb_mshr_size 16
stlb_latency 8

l1i_size 32
l1i_set 64
l1i_way 8
l1i_rq_size 64
l1i_wq_size 64
l1i_pq_size 8
l1i_mshr_size 8
l1i_latency 1

l1d_size 32
l1d_set 64
l1d_way 8
l1d_rq_size 64
l1d_wq_size 64
l1d_pq_size 8
l1d_mshr_size 16
l1d_latency 4

l2c_size 256
l2c_set 512
l2c_way 8
l2c_rq_size 32
l2c_wq_size 32
l2c_pq_size 32
l2c_mshr_size 32
l2c_latency 10

llc_size 8192
llc_set 8192
llc_way 16
llc_rq_size 128
llc_wq_size 128
llc_pq_size 128
llc_mshr_size 256
llc_latency 20

dram_channel_width 8
dram_wq_size 64
dram_rq_size 64
tRP 15
tRCD 15
tCAS 12.5
dram_dbus_turn_around_time 30
dram_write_high_wm 56
dram_write_low_wm 48
min_dram_writes_per_switch 16
dram_mtps 2400
dram_dbus_return_time 13

mlop_pref_degree 16
mlop_num_updates 500
mlop_l1d_thresh 2
mlop_l2c_thresh 0.75
mlop_llc_thresh 0.3
mlop_debug_level 0
mlop_blocks_in_cache 4096
mlop_blocks_in_zone 64
mlop_amt_size 2048
mlop_PF_DEGREE 16
mlop_NUM_UPDATES 500
mlop_L1D_THRESH 1000
mlop_L2C_THRESH 375
mlop_LLC_THRESH 150
mlop_ORIGIN 63
mlop_MAX_OFFSET 63
mlop_MIN_OFFSET -63
mlop_ORIGIN 63
mlop_NUM_OFFSETS 127


Heartbeat CPU  2 instructions:    1000001 cycles:     385491 heartbeat IPC: 2.59410 cumulative IPC: 2.59410 (Simulation time: 0 hr 0 min 5 sec) 
Heartbeat CPU  0 instructions:    1000003 cycles:     477622 heartbeat IPC: 2.09371 cumulative IPC: 2.09371 (Simulation time: 0 hr 0 min 6 sec) 
Heartbeat CPU  3 instructions:    1000003 cycles:     588353 heartbeat IPC: 1.69966 cumulative IPC: 1.69966 (Simulation time: 0 hr 0 min 8 sec) 
Heartbeat CPU  1 instructions:    1000003 cycles:     615258 heartbeat IPC: 1.62534 cumulative IPC: 1.62534 (Simulation time: 0 hr 0 min 8 sec) 
Heartbeat CPU  2 instructions:    2000001 cycles:     688645 heartbeat IPC: 3.29865 cumulative IPC: 2.90426 (Simulation time: 0 hr 0 min 9 sec) 
Heartbeat CPU  0 instructions:    2000003 cycles:     960282 heartbeat IPC: 2.07185 cumulative IPC: 2.08272 (Simulation time: 0 hr 0 min 13 sec) 
Heartbeat CPU  2 instructions:    3000002 cycles:     995042 heartbeat IPC: 3.26374 cumulative IPC: 3.01495 (Simulation time: 0 hr 0 min 14 sec) 
Heartbeat CPU  1 instructions:    2000002 cycles:    1129272 heartbeat IPC: 1.94547 cumulative IPC: 1.77105 (Simulation time: 0 hr 0 min 16 sec) 
Heartbeat CPU  3 instructions:    2000003 cycles:    1145789 heartbeat IPC: 1.79393 cumulative IPC: 1.74552 (Simulation time: 0 hr 0 min 16 sec) 
Heartbeat CPU  0 instructions:    3000002 cycles:    1435194 heartbeat IPC: 2.10565 cumulative IPC: 2.09031 (Simulation time: 0 hr 0 min 20 sec) 
Heartbeat CPU  2 instructions:    4000000 cycles:    1449464 heartbeat IPC: 2.20059 cumulative IPC: 2.75964 (Simulation time: 0 hr 0 min 20 sec) 
Heartbeat CPU  3 instructions:    3000000 cycles:    1632007 heartbeat IPC: 2.05668 cumulative IPC: 1.83823 (Simulation time: 0 hr 0 min 23 sec) 
Heartbeat CPU  1 instructions:    3000003 cycles:    1650707 heartbeat IPC: 1.91779 cumulative IPC: 1.81740 (Simulation time: 0 hr 0 min 23 sec) 
Heartbeat CPU  2 instructions:    5000002 cycles:    1768481 heartbeat IPC: 3.13464 cumulative IPC: 2.82729 (Simulation time: 0 hr 0 min 25 sec) 
Heartbeat CPU  0 instructions:    4000000 cycles:    1895663 heartbeat IPC: 2.17169 cumulative IPC: 2.11008 (Simulation time: 0 hr 0 min 27 sec) 
Heartbeat CPU  2 instructions:    6000001 cycles:    2066813 heartbeat IPC: 3.35197 cumulative IPC: 2.90302 (Simulation time: 0 hr 0 min 29 sec) 
Heartbeat CPU  3 instructions:    4000000 cycles:    2151260 heartbeat IPC: 1.92584 cumulative IPC: 1.85938 (Simulation time: 0 hr 0 min 30 sec) 
Heartbeat CPU  1 instructions:    4000000 cycles:    2218907 heartbeat IPC: 1.75994 cumulative IPC: 1.80269 (Simulation time: 0 hr 0 min 31 sec) 
Heartbeat CPU  2 instructions:    7000001 cycles:    2361993 heartbeat IPC: 3.38776 cumulative IPC: 2.96360 (Simulation time: 0 hr 0 min 34 sec) 
Heartbeat CPU  0 instructions:    5000002 cycles:    2385842 heartbeat IPC: 2.04008 cumulative IPC: 2.09570 (Simulation time: 0 hr 0 min 34 sec) 
Heartbeat CPU  3 instructions:    5000003 cycles:    2625785 heartbeat IPC: 2.10738 cumulative IPC: 1.90419 (Simulation time: 0 hr 0 min 38 sec) 
Heartbeat CPU  2 instructions:    8000000 cycles:    2707715 heartbeat IPC: 2.89249 cumulative IPC: 2.95452 (Simulation time: 0 hr 0 min 39 sec) 
Heartbeat CPU  1 instructions:    5000000 cycles:    2741282 heartbeat IPC: 1.91433 cumulative IPC: 1.82396 (Simulation time: 0 hr 0 min 40 sec) 
Heartbeat CPU  0 instructions:    6000003 cycles:    2830823 heartbeat IPC: 2.24729 cumulative IPC: 2.11953 (Simulation time: 0 hr 0 min 41 sec) 
Heartbeat CPU  3 instructions:    6000001 cycles:    3090882 heartbeat IPC: 2.15008 cumulative IPC: 1.94119 (Simulation time: 0 hr 0 min 44 sec) 
Heartbeat CPU  0 instructions:    7000000 cycles:    3210644 heartbeat IPC: 2.63281 cumulative IPC: 2.18025 (Simulation time: 0 hr 0 min 46 sec) 
Heartbeat CPU  1 instructions:    6000000 cycles:    3231907 heartbeat IPC: 2.03822 cumulative IPC: 1.85649 (Simulation time: 0 hr 0 min 46 sec) 
Heartbeat CPU  2 instructions:    9000000 cycles:    3453144 heartbeat IPC: 1.34151 cumulative IPC: 2.60632 (Simulation time: 0 hr 0 min 49 sec) 
Heartbeat CPU  3 instructions:    7000001 cycles:    3552330 heartbeat IPC: 2.16709 cumulative IPC: 1.97054 (Simulation time: 0 hr 0 min 50 sec) 
Heartbeat CPU  0 instructions:    8000000 cycles:    3561625 heartbeat IPC: 2.84916 cumulative IPC: 2.24617 (Simulation time: 0 hr 0 min 50 sec) 
Heartbeat CPU  1 instructions:    7000002 cycles:    3734262 heartbeat IPC: 1.99063 cumulative IPC: 1.87453 (Simulation time: 0 hr 0 min 53 sec) 
Heartbeat CPU  3 instructions:    8000000 cycles:    4017112 heartbeat IPC: 2.15154 cumulative IPC: 1.99148 (Simulation time: 0 hr 0 min 56 sec) 
Heartbeat CPU  0 instructions:    9000001 cycles:    4165506 heartbeat IPC: 1.65596 cumulative IPC: 2.16060 (Simulation time: 0 hr 0 min 58 sec) 
Heartbeat CPU  2 instructions:   10000002 cycles:    4182803 heartbeat IPC: 1.37051 cumulative IPC: 2.39074 (Simulation time: 0 hr 0 min 58 sec) 
Heartbeat CPU  1 instructions:    8000000 cycles:    4218026 heartbeat IPC: 2.06712 cumulative IPC: 1.89662 (Simulation time: 0 hr 0 min 58 sec) 
Heartbeat CPU  3 instructions:    9000000 cycles:    4547234 heartbeat IPC: 1.88636 cumulative IPC: 1.97923 (Simulation time: 0 hr 1 min 2 sec) 
Heartbeat CPU  0 instructions:   10000001 cycles:    4731641 heartbeat IPC: 1.76636 cumulative IPC: 2.11343 (Simulation time: 0 hr 1 min 5 sec) 
Heartbeat CPU  1 instructions:    9000003 cycles:    4775857 heartbeat IPC: 1.79266 cumulative IPC: 1.88448 (Simulation time: 0 hr 1 min 5 sec) 
Heartbeat CPU  2 instructions:   11000001 cycles:    4805965 heartbeat IPC: 1.60472 cumulative IPC: 2.28882 (Simulation time: 0 hr 1 min 6 sec) 
Heartbeat CPU  3 instructions:   10000000 cycles:    5065344 heartbeat IPC: 1.93009 cumulative IPC: 1.97420 (Simulation time: 0 hr 1 min 9 sec) 
Heartbeat CPU  0 instructions:   11000001 cycles:    5291937 heartbeat IPC: 1.78477 cumulative IPC: 2.07863 (Simulation time: 0 hr 1 min 11 sec) 
Heartbeat CPU  1 instructions:   10000001 cycles:    5329854 heartbeat IPC: 1.80506 cumulative IPC: 1.87622 (Simulation time: 0 hr 1 min 12 sec) 
Heartbeat CPU  2 instructions:   12000000 cycles:    5405663 heartbeat IPC: 1.66750 cumulative IPC: 2.21989 (Simulation time: 0 hr 1 min 13 sec) 
Heartbeat CPU  3 instructions:   11000001 cycles:    5608855 heartbeat IPC: 1.83989 cumulative IPC: 1.96118 (Simulation time: 0 hr 1 min 15 sec) 
Heartbeat CPU  0 instructions:   12000000 cycles:    5828798 heartbeat IPC: 1.86268 cumulative IPC: 2.05874 (Simulation time: 0 hr 1 min 18 sec) 
Heartbeat CPU  1 instructions:   11000003 cycles:    5839942 heartbeat IPC: 1.96045 cumulative IPC: 1.88358 (Simulation time: 0 hr 1 min 18 sec) 
Heartbeat CPU  2 instructions:   13000001 cycles:    5979674 heartbeat IPC: 1.74213 cumulative IPC: 2.17403 (Simulation time: 0 hr 1 min 20 sec) 
Heartbeat CPU  3 instructions:   12000000 cycles:    6112790 heartbeat IPC: 1.98438 cumulative IPC: 1.96310 (Simulation time: 0 hr 1 min 22 sec) 
Heartbeat CPU  2 instructions:   14000003 cycles:    6292496 heartbeat IPC: 3.19671 cumulative IPC: 2.22487 (Simulation time: 0 hr 1 min 25 sec) 
Heartbeat CPU  0 instructions:   13000003 cycles:    6342447 heartbeat IPC: 1.94686 cumulative IPC: 2.04968 (Simulation time: 0 hr 1 min 26 sec) 
Heartbeat CPU  1 instructions:   12000000 cycles:    6343973 heartbeat IPC: 1.98400 cumulative IPC: 1.89156 (Simulation time: 0 hr 1 min 26 sec) 
Heartbeat CPU  2 instructions:   15000003 cycles:    6596836 heartbeat IPC: 3.28580 cumulative IPC: 2.27382 (Simulation time: 0 hr 1 min 29 sec) 
Heartbeat CPU  3 instructions:   13000002 cycles:    6641884 heartbeat IPC: 1.89003 cumulative IPC: 1.95728 (Simulation time: 0 hr 1 min 30 sec) 
Heartbeat CPU  0 instructions:   14000000 cycles:    6811095 heartbeat IPC: 2.13379 cumulative IPC: 2.05547 (Simulation time: 0 hr 1 min 33 sec) 
Heartbeat CPU  1 instructions:   13000003 cycles:    6880238 heartbeat IPC: 1.86476 cumulative IPC: 1.88947 (Simulation time: 0 hr 1 min 34 sec) 
Heartbeat CPU  2 instructions:   16000000 cycles:    6901111 heartbeat IPC: 3.28649 cumulative IPC: 2.31847 (Simulation time: 0 hr 1 min 34 sec) 
Heartbeat CPU  3 instructions:   14000000 cycles:    7111492 heartbeat IPC: 2.12943 cumulative IPC: 1.96864 (Simulation time: 0 hr 1 min 37 sec) 
Heartbeat CPU  2 instructions:   17000003 cycles:    7204153 heartbeat IPC: 3.29988 cumulative IPC: 2.35975 (Simulation time: 0 hr 1 min 39 sec) 
Heartbeat CPU  0 instructions:   15000002 cycles:    7330064 heartbeat IPC: 1.92690 cumulative IPC: 2.04637 (Simulation time: 0 hr 1 min 41 sec) 
Heartbeat CPU  1 instructions:   14000001 cycles:    7393664 heartbeat IPC: 1.94770 cumulative IPC: 1.89351 (Simulation time: 0 hr 1 min 42 sec) 
Heartbeat CPU  2 instructions:   18000002 cycles:    7484250 heartbeat IPC: 3.57019 cumulative IPC: 2.40505 (Simulation time: 0 hr 1 min 43 sec) 
Heartbeat CPU  3 instructions:   15000003 cycles:    7577933 heartbeat IPC: 2.14390 cumulative IPC: 1.97943 (Simulation time: 0 hr 1 min 45 sec) 
Heartbeat CPU  2 instructions:   19000003 cycles:    7757048 heartbeat IPC: 3.66572 cumulative IPC: 2.44939 (Simulation time: 0 hr 1 min 48 sec) 
Heartbeat CPU  0 instructions:   16000000 cycles:    7805126 heartbeat IPC: 2.10498 cumulative IPC: 2.04993 (Simulation time: 0 hr 1 min 49 sec) 
Heartbeat CPU  1 instructions:   15000002 cycles:    7856550 heartbeat IPC: 2.16036 cumulative IPC: 1.90924 (Simulation time: 0 hr 1 min 49 sec) 
Heartbeat CPU  2 instructions:   20000000 cycles:    8035239 heartbeat IPC: 3.59464 cumulative IPC: 2.48904 (Simulation time: 0 hr 1 min 52 sec) 
Heartbeat CPU  3 instructions:   16000000 cycles:    8056413 heartbeat IPC: 2.08995 cumulative IPC: 1.98600 (Simulation time: 0 hr 1 min 53 sec) 
Heartbeat CPU  0 instructions:   17000000 cycles:    8303766 heartbeat IPC: 2.00545 cumulative IPC: 2.04726 (Simulation time: 0 hr 1 min 56 sec) 
Heartbeat CPU  2 instructions:   21000001 cycles:    8311543 heartbeat IPC: 3.61921 cumulative IPC: 2.52661 (Simulation time: 0 hr 1 min 57 sec) 
Heartbeat CPU  1 instructions:   16000000 cycles:    8317132 heartbeat IPC: 2.17116 cumulative IPC: 1.92374 (Simulation time: 0 hr 1 min 57 sec) 
Heartbeat CPU  3 instructions:   17000003 cycles:    8545201 heartbeat IPC: 2.04588 cumulative IPC: 1.98942 (Simulation time: 0 hr 2 min 0 sec) 
Heartbeat CPU  1 instructions:   17000001 cycles:    8770674 heartbeat IPC: 2.20487 cumulative IPC: 1.93828 (Simulation time: 0 hr 2 min 3 sec) 
Heartbeat CPU  0 instructions:   18000000 cycles:    8818661 heartbeat IPC: 1.94214 cumulative IPC: 2.04113 (Simulation time: 0 hr 2 min 4 sec) 
Heartbeat CPU  2 instructions:   22000000 cycles:    8843304 heartbeat IPC: 1.88054 cumulative IPC: 2.48776 (Simulation time: 0 hr 2 min 4 sec) 
Heartbeat CPU  3 instructions:   18000003 cycles:    8947308 heartbeat IPC: 2.48690 cumulative IPC: 2.01178 (Simulation time: 0 hr 2 min 5 sec) 
Heartbeat CPU  1 instructions:   18000001 cycles:    9053976 heartbeat IPC: 3.52980 cumulative IPC: 1.98808 (Simulation time: 0 hr 2 min 7 sec) 
Heartbeat CPU  3 instructions:   19000002 cycles:    9222978 heartbeat IPC: 3.62752 cumulative IPC: 2.06007 (Simulation time: 0 hr 2 min 10 sec) 
Heartbeat CPU  0 instructions:   19000003 cycles:    9293418 heartbeat IPC: 2.10635 cumulative IPC: 2.04446 (Simulation time: 0 hr 2 min 11 sec) 
Heartbeat CPU  1 instructions:   19000000 cycles:    9334153 heartbeat IPC: 3.56917 cumulative IPC: 2.03554 (Simulation time: 0 hr 2 min 11 sec) 
Heartbeat CPU  3 instructions:   20000000 cycles:    9494459 heartbeat IPC: 3.68349 cumulative IPC: 2.10649 (Simulation time: 0 hr 2 min 14 sec) 
Heartbeat CPU  1 instructions:   20000000 cycles:    9671061 heartbeat IPC: 2.96817 cumulative IPC: 2.06803 (Simulation time: 0 hr 2 min 16 sec) 
Heartbeat CPU  2 instructions:   23000002 cycles:    9695917 heartbeat IPC: 1.17287 cumulative IPC: 2.37213 (Simulation time: 0 hr 2 min 17 sec) 
Heartbeat CPU  0 instructions:   20000000 cycles:    9752725 heartbeat IPC: 2.17719 cumulative IPC: 2.05071 (Simulation time: 0 hr 2 min 18 sec) 
Heartbeat CPU  3 instructions:   21000000 cycles:    9771924 heartbeat IPC: 3.60406 cumulative IPC: 2.14901 (Simulation time: 0 hr 2 min 18 sec) 
Heartbeat CPU  1 instructions:   21000003 cycles:   10039666 heartbeat IPC: 2.71294 cumulative IPC: 2.09170 (Simulation time: 0 hr 2 min 22 sec) 
Heartbeat CPU  3 instructions:   22000002 cycles:   10121268 heartbeat IPC: 2.86251 cumulative IPC: 2.17364 (Simulation time: 0 hr 2 min 23 sec) 
Heartbeat CPU  0 instructions:   21000002 cycles:   10209183 heartbeat IPC: 2.19079 cumulative IPC: 2.05697 (Simulation time: 0 hr 2 min 24 sec) 
Heartbeat CPU  2 instructions:   24000000 cycles:   10311028 heartbeat IPC: 1.62572 cumulative IPC: 2.32761 (Simulation time: 0 hr 2 min 26 sec) 
Heartbeat CPU  1 instructions:   22000000 cycles:   10464116 heartbeat IPC: 2.35598 cumulative IPC: 2.10242 (Simulation time: 0 hr 2 min 28 sec) 
Heartbeat CPU  3 instructions:   23000000 cycles:   10657847 heartbeat IPC: 1.86365 cumulative IPC: 2.15803 (Simulation time: 0 hr 2 min 30 sec) 
Heartbeat CPU  0 instructions:   22000001 cycles:   10668602 heartbeat IPC: 2.17666 cumulative IPC: 2.06213 (Simulation time: 0 hr 2 min 31 sec) 
Heartbeat CPU  2 instructions:   25000003 cycles:   10770008 heartbeat IPC: 2.17875 cumulative IPC: 2.32126 (Simulation time: 0 hr 2 min 32 sec) 
Heartbeat CPU  1 instructions:   23000000 cycles:   10947630 heartbeat IPC: 2.06819 cumulative IPC: 2.10091 (Simulation time: 0 hr 2 min 35 sec) 
Heartbeat CPU  2 instructions:   26000003 cycles:   11079169 heartbeat IPC: 3.23456 cumulative IPC: 2.34675 (Simulation time: 0 hr 2 min 37 sec) 
Heartbeat CPU  0 instructions:   23000003 cycles:   11167738 heartbeat IPC: 2.00347 cumulative IPC: 2.05950 (Simulation time: 0 hr 2 min 39 sec) 
Heartbeat CPU  3 instructions:   24000000 cycles:   11174477 heartbeat IPC: 1.93562 cumulative IPC: 2.14775 (Simulation time: 0 hr 2 min 39 sec) 
Heartbeat CPU  2 instructions:   27000001 cycles:   11381205 heartbeat IPC: 3.31086 cumulative IPC: 2.37233 (Simulation time: 0 hr 2 min 42 sec) 
Heartbeat CPU  1 instructions:   24000000 cycles:   11391276 heartbeat IPC: 2.25405 cumulative IPC: 2.10688 (Simulation time: 0 hr 2 min 42 sec) 
Heartbeat CPU  3 instructions:   25000002 cycles:   11677004 heartbeat IPC: 1.98995 cumulative IPC: 2.14096 (Simulation time: 0 hr 2 min 46 sec) 
Heartbeat CPU  0 instructions:   24000000 cycles:   11708419 heartbeat IPC: 1.84951 cumulative IPC: 2.04981 (Simulation time: 0 hr 2 min 47 sec) 
Heartbeat CPU  2 instructions:   28000000 cycles:   11758363 heartbeat IPC: 2.65141 cumulative IPC: 2.38128 (Simulation time: 0 hr 2 min 47 sec) 
Heartbeat CPU  1 instructions:   25000000 cycles:   11886108 heartbeat IPC: 2.02089 cumulative IPC: 2.10330 (Simulation time: 0 hr 2 min 49 sec) 
Heartbeat CPU  3 instructions:   26000001 cycles:   12135350 heartbeat IPC: 2.18176 cumulative IPC: 2.14250 (Simulation time: 0 hr 2 min 52 sec) 
Heartbeat CPU  0 instructions:   25000001 cycles:   12204045 heartbeat IPC: 2.01765 cumulative IPC: 2.04850 (Simulation time: 0 hr 2 min 53 sec) 
Heartbeat CPU  1 instructions:   26000001 cycles:   12350328 heartbeat IPC: 2.15415 cumulative IPC: 2.10521 (Simulation time: 0 hr 2 min 56 sec) 
Heartbeat CPU  2 instructions:   29000002 cycles:   12369445 heartbeat IPC: 1.63644 cumulative IPC: 2.34449 (Simulation time: 0 hr 2 min 56 sec) 
Heartbeat CPU  3 instructions:   27000001 cycles:   12577799 heartbeat IPC: 2.26015 cumulative IPC: 2.14664 (Simulation time: 0 hr 2 min 59 sec) 
Heartbeat CPU  0 instructions:   26000002 cycles:   12661967 heartbeat IPC: 2.18378 cumulative IPC: 2.05339 (Simulation time: 0 hr 3 min 0 sec) 
Heartbeat CPU  1 instructions:   27000000 cycles:   12810857 heartbeat IPC: 2.17141 cumulative IPC: 2.10759 (Simulation time: 0 hr 3 min 2 sec) 
Heartbeat CPU  2 instructions:   30000000 cycles:   12957907 heartbeat IPC: 1.69934 cumulative IPC: 2.31519 (Simulation time: 0 hr 3 min 4 sec) 
Heartbeat CPU  3 instructions:   28000000 cycles:   13057105 heartbeat IPC: 2.08635 cumulative IPC: 2.14443 (Simulation time: 0 hr 3 min 6 sec) 
Heartbeat CPU  0 instructions:   27000003 cycles:   13107092 heartbeat IPC: 2.24656 cumulative IPC: 2.05995 (Simulation time: 0 hr 3 min 6 sec) 
Heartbeat CPU  1 instructions:   28000000 cycles:   13265407 heartbeat IPC: 2.19998 cumulative IPC: 2.11075 (Simulation time: 0 hr 3 min 8 sec) 
Heartbeat CPU  2 instructions:   31000002 cycles:   13526090 heartbeat IPC: 1.76000 cumulative IPC: 2.29187 (Simulation time: 0 hr 3 min 12 sec) 
Heartbeat CPU  0 instructions:   28000000 cycles:   13560451 heartbeat IPC: 2.20575 cumulative IPC: 2.06483 (Simulation time: 0 hr 3 min 12 sec) 
Heartbeat CPU  3 instructions:   29000000 cycles:   13614147 heartbeat IPC: 1.79520 cumulative IPC: 2.13014 (Simulation time: 0 hr 3 min 13 sec) 
Heartbeat CPU  1 instructions:   29000002 cycles:   13857699 heartbeat IPC: 1.68836 cumulative IPC: 2.09270 (Simulation time: 0 hr 3 min 16 sec) 
Heartbeat CPU  3 instructions:   30000001 cycles:   14052022 heartbeat IPC: 2.28376 cumulative IPC: 2.13492 (Simulation time: 0 hr 3 min 18 sec) 
Heartbeat CPU  2 instructions:   32000000 cycles:   14074453 heartbeat IPC: 1.82361 cumulative IPC: 2.27362 (Simulation time: 0 hr 3 min 18 sec) 
Heartbeat CPU  1 instructions:   30000002 cycles:   14374837 heartbeat IPC: 1.93372 cumulative IPC: 2.08698 (Simulation time: 0 hr 3 min 22 sec) 
Heartbeat CPU  0 instructions:   29000001 cycles:   14512524 heartbeat IPC: 1.05034 cumulative IPC: 1.99827 (Simulation time: 0 hr 3 min 23 sec) 
Heartbeat CPU  3 instructions:   31000000 cycles:   14522415 heartbeat IPC: 2.12588 cumulative IPC: 2.13463 (Simulation time: 0 hr 3 min 23 sec) 
Heartbeat CPU  2 instructions:   33000001 cycles:   14607857 heartbeat IPC: 1.87475 cumulative IPC: 2.25906 (Simulation time: 0 hr 3 min 24 sec) 
Heartbeat CPU  1 instructions:   31000000 cycles:   14868652 heartbeat IPC: 2.02505 cumulative IPC: 2.08492 (Simulation time: 0 hr 3 min 28 sec) 
Heartbeat CPU  3 instructions:   32000000 cycles:   14959581 heartbeat IPC: 2.28746 cumulative IPC: 2.13910 (Simulation time: 0 hr 3 min 29 sec) 
Heartbeat CPU  2 instructions:   34000002 cycles:   15155505 heartbeat IPC: 1.82599 cumulative IPC: 2.24341 (Simulation time: 0 hr 3 min 31 sec) 
Heartbeat CPU  1 instructions:   32000000 cycles:   15351962 heartbeat IPC: 2.06907 cumulative IPC: 2.08442 (Simulation time: 0 hr 3 min 33 sec) 
Heartbeat CPU  0 instructions:   30000000 cycles:   15407251 heartbeat IPC: 1.11766 cumulative IPC: 1.94714 (Simulation time: 0 hr 3 min 34 sec) 
Heartbeat CPU  3 instructions:   33000000 cycles:   15432744 heartbeat IPC: 2.11344 cumulative IPC: 2.13831 (Simulation time: 0 hr 3 min 34 sec) 
Heartbeat CPU  2 instructions:   35000002 cycles:   15728227 heartbeat IPC: 1.74605 cumulative IPC: 2.22530 (Simulation time: 0 hr 3 min 37 sec) 
Heartbeat CPU  1 instructions:   33000000 cycles:   15865466 heartbeat IPC: 1.94740 cumulative IPC: 2.07999 (Simulation time: 0 hr 3 min 39 sec) 
Heartbeat CPU  3 instructions:   34000001 cycles:   15891061 heartbeat IPC: 2.18190 cumulative IPC: 2.13957 (Simulation time: 0 hr 3 min 39 sec) 
Heartbeat CPU  0 instructions:   31000000 cycles:   16046492 heartbeat IPC: 1.56436 cumulative IPC: 1.93189 (Simulation time: 0 hr 3 min 41 sec) 
Heartbeat CPU  2 instructions:   36000000 cycles:   16290722 heartbeat IPC: 1.77779 cumulative IPC: 2.20985 (Simulation time: 0 hr 3 min 44 sec) 
Heartbeat CPU  1 instructions:   34000000 cycles:   16344380 heartbeat IPC: 2.08806 cumulative IPC: 2.08023 (Simulation time: 0 hr 3 min 45 sec) 
Heartbeat CPU  3 instructions:   35000001 cycles:   16431773 heartbeat IPC: 1.84941 cumulative IPC: 2.13002 (Simulation time: 0 hr 3 min 46 sec) 
Heartbeat CPU  0 instructions:   32000000 cycles:   16578213 heartbeat IPC: 1.88069 cumulative IPC: 1.93024 (Simulation time: 0 hr 3 min 48 sec) 
Heartbeat CPU  1 instructions:   35000000 cycles:   16840658 heartbeat IPC: 2.01500 cumulative IPC: 2.07830 (Simulation time: 0 hr 3 min 52 sec) 
Heartbeat CPU  2 instructions:   37000000 cycles:   16878783 heartbeat IPC: 1.70050 cumulative IPC: 2.19210 (Simulation time: 0 hr 3 min 52 sec) 
Heartbeat CPU  3 instructions:   36000000 cycles:   16938065 heartbeat IPC: 1.97514 cumulative IPC: 2.12539 (Simulation time: 0 hr 3 min 53 sec) 
Heartbeat CPU  0 instructions:   33000000 cycles:   17064245 heartbeat IPC: 2.05748 cumulative IPC: 1.93387 (Simulation time: 0 hr 3 min 55 sec) 
Heartbeat CPU  1 instructions:   36000000 cycles:   17350195 heartbeat IPC: 1.96257 cumulative IPC: 2.07490 (Simulation time: 0 hr 3 min 58 sec) 
Heartbeat CPU  3 instructions:   37000000 cycles:   17460797 heartbeat IPC: 1.91303 cumulative IPC: 2.11903 (Simulation time: 0 hr 4 min 0 sec) 
Heartbeat CPU  2 instructions:   38000000 cycles:   17476881 heartbeat IPC: 1.67197 cumulative IPC: 2.17430 (Simulation time: 0 hr 4 min 0 sec) 
Heartbeat CPU  0 instructions:   34000001 cycles:   17552804 heartbeat IPC: 2.04684 cumulative IPC: 1.93701 (Simulation time: 0 hr 4 min 1 sec) 
Heartbeat CPU  1 instructions:   37000000 cycles:   17879249 heartbeat IPC: 1.89017 cumulative IPC: 2.06944 (Simulation time: 0 hr 4 min 5 sec) 
Heartbeat CPU  3 instructions:   38000002 cycles:   18010344 heartbeat IPC: 1.81968 cumulative IPC: 2.10990 (Simulation time: 0 hr 4 min 7 sec) 
Heartbeat CPU  2 instructions:   39000002 cycles:   18019088 heartbeat IPC: 1.84432 cumulative IPC: 2.16437 (Simulation time: 0 hr 4 min 7 sec) 
Heartbeat CPU  0 instructions:   35000000 cycles:   18064350 heartbeat IPC: 1.95486 cumulative IPC: 1.93752 (Simulation time: 0 hr 4 min 8 sec) 
Heartbeat CPU  1 instructions:   38000001 cycles:   18378881 heartbeat IPC: 2.00148 cumulative IPC: 2.06759 (Simulation time: 0 hr 4 min 11 sec) 
Heartbeat CPU  3 instructions:   39000000 cycles:   18572128 heartbeat IPC: 1.78004 cumulative IPC: 2.09992 (Simulation time: 0 hr 4 min 14 sec) 
Heartbeat CPU  0 instructions:   36000000 cycles:   18626790 heartbeat IPC: 1.77797 cumulative IPC: 1.93270 (Simulation time: 0 hr 4 min 14 sec) 
Heartbeat CPU  2 instructions:   40000000 cycles:   18676570 heartbeat IPC: 1.52095 cumulative IPC: 2.14172 (Simulation time: 0 hr 4 min 15 sec) 
Heartbeat CPU  1 instructions:   39000000 cycles:   18891880 heartbeat IPC: 1.94932 cumulative IPC: 2.06438 (Simulation time: 0 hr 4 min 18 sec) 
Heartbeat CPU  3 instructions:   40000000 cycles:   19089143 heartbeat IPC: 1.93418 cumulative IPC: 2.09543 (Simulation time: 0 hr 4 min 20 sec) 
Heartbeat CPU  0 instructions:   37000003 cycles:   19115295 heartbeat IPC: 2.04707 cumulative IPC: 1.93562 (Simulation time: 0 hr 4 min 21 sec) 
Heartbeat CPU  2 instructions:   41000002 cycles:   19264036 heartbeat IPC: 1.70223 cumulative IPC: 2.12832 (Simulation time: 0 hr 4 min 23 sec) 
Heartbeat CPU  1 instructions:   40000000 cycles:   19392795 heartbeat IPC: 1.99635 cumulative IPC: 2.06262 (Simulation time: 0 hr 4 min 24 sec) 
Heartbeat CPU  3 instructions:   41000003 cycles:   19588457 heartbeat IPC: 2.00275 cumulative IPC: 2.09307 (Simulation time: 0 hr 4 min 27 sec) 
Heartbeat CPU  0 instructions:   38000000 cycles:   19640283 heartbeat IPC: 1.90480 cumulative IPC: 1.93480 (Simulation time: 0 hr 4 min 28 sec) 
Heartbeat CPU  2 instructions:   42000003 cycles:   19849532 heartbeat IPC: 1.70796 cumulative IPC: 2.11592 (Simulation time: 0 hr 4 min 30 sec) 
Heartbeat CPU  1 instructions:   41000000 cycles:   19887247 heartbeat IPC: 2.02244 cumulative IPC: 2.06162 (Simulation time: 0 hr 4 min 31 sec) 
Heartbeat CPU  3 instructions:   42000002 cycles:   20116328 heartbeat IPC: 1.89440 cumulative IPC: 2.08786 (Simulation time: 0 hr 4 min 34 sec) 
Heartbeat CPU  0 instructions:   39000002 cycles:   20171178 heartbeat IPC: 1.88362 cumulative IPC: 1.93345 (Simulation time: 0 hr 4 min 35 sec) 
Heartbeat CPU  1 instructions:   42000000 cycles:   20399467 heartbeat IPC: 1.95229 cumulative IPC: 2.05888 (Simulation time: 0 hr 4 min 37 sec) 
Heartbeat CPU  2 instructions:   43000000 cycles:   20430545 heartbeat IPC: 1.72113 cumulative IPC: 2.10469 (Simulation time: 0 hr 4 min 38 sec) 
Heartbeat CPU  3 instructions:   43000003 cycles:   20699058 heartbeat IPC: 1.71606 cumulative IPC: 2.07739 (Simulation time: 0 hr 4 min 41 sec) 
Heartbeat CPU  0 instructions:   40000000 cycles:   20726825 heartbeat IPC: 1.79970 cumulative IPC: 1.92987 (Simulation time: 0 hr 4 min 41 sec) 
Heartbeat CPU  1 instructions:   43000002 cycles:   20904720 heartbeat IPC: 1.97921 cumulative IPC: 2.05695 (Simulation time: 0 hr 4 min 43 sec) 
Heartbeat CPU  2 instructions:   44000000 cycles:   21020253 heartbeat IPC: 1.69575 cumulative IPC: 2.09322 (Simulation time: 0 hr 4 min 45 sec) 
Heartbeat CPU  3 instructions:   44000000 cycles:   21221041 heartbeat IPC: 1.91577 cumulative IPC: 2.07341 (Simulation time: 0 hr 4 min 47 sec) 
Heartbeat CPU  0 instructions:   41000002 cycles:   21228400 heartbeat IPC: 1.99372 cumulative IPC: 1.93138 (Simulation time: 0 hr 4 min 47 sec) 
Heartbeat CPU  1 instructions:   44000000 cycles:   21415269 heartbeat IPC: 1.95867 cumulative IPC: 2.05461 (Simulation time: 0 hr 4 min 50 sec) 
Heartbeat CPU  2 instructions:   45000003 cycles:   21598746 heartbeat IPC: 1.72863 cumulative IPC: 2.08345 (Simulation time: 0 hr 4 min 52 sec) 
Heartbeat CPU  0 instructions:   42000001 cycles:   21734406 heartbeat IPC: 1.97626 cumulative IPC: 1.93242 (Simulation time: 0 hr 4 min 54 sec) 
Heartbeat CPU  3 instructions:   45000003 cycles:   21746430 heartbeat IPC: 1.90336 cumulative IPC: 2.06931 (Simulation time: 0 hr 4 min 54 sec) 
Heartbeat CPU  1 instructions:   45000002 cycles:   21942309 heartbeat IPC: 1.89739 cumulative IPC: 2.05083 (Simulation time: 0 hr 4 min 56 sec) 
Heartbeat CPU  2 instructions:   46000001 cycles:   22174965 heartbeat IPC: 1.73545 cumulative IPC: 2.07441 (Simulation time: 0 hr 4 min 59 sec) 
Heartbeat CPU  0 instructions:   43000001 cycles:   22260033 heartbeat IPC: 1.90249 cumulative IPC: 1.93171 (Simulation time: 0 hr 5 min 0 sec) 
Heartbeat CPU  3 instructions:   46000000 cycles:   22266962 heartbeat IPC: 1.92111 cumulative IPC: 2.06584 (Simulation time: 0 hr 5 min 0 sec) 
Heartbeat CPU  1 instructions:   46000002 cycles:   22444127 heartbeat IPC: 1.99275 cumulative IPC: 2.04953 (Simulation time: 0 hr 5 min 3 sec) 
Heartbeat CPU  2 instructions:   47000001 cycles:   22764600 heartbeat IPC: 1.69596 cumulative IPC: 2.06461 (Simulation time: 0 hr 5 min 7 sec) 
Heartbeat CPU  3 instructions:   47000001 cycles:   22771580 heartbeat IPC: 1.98170 cumulative IPC: 2.06398 (Simulation time: 0 hr 5 min 7 sec) 
Heartbeat CPU  0 instructions:   44000000 cycles:   22796650 heartbeat IPC: 1.86352 cumulative IPC: 1.93011 (Simulation time: 0 hr 5 min 7 sec) 
Heartbeat CPU  1 instructions:   47000002 cycles:   22981713 heartbeat IPC: 1.86017 cumulative IPC: 2.04510 (Simulation time: 0 hr 5 min 9 sec) 
Heartbeat CPU  3 instructions:   48000000 cycles:   23307343 heartbeat IPC: 1.86650 cumulative IPC: 2.05944 (Simulation time: 0 hr 5 min 14 sec) 
Heartbeat CPU  2 instructions:   48000000 cycles:   23330210 heartbeat IPC: 1.76800 cumulative IPC: 2.05742 (Simulation time: 0 hr 5 min 14 sec) 
Heartbeat CPU  0 instructions:   45000003 cycles:   23343119 heartbeat IPC: 1.82994 cumulative IPC: 1.92776 (Simulation time: 0 hr 5 min 14 sec) 
Heartbeat CPU  1 instructions:   48000000 cycles:   23501438 heartbeat IPC: 1.92409 cumulative IPC: 2.04243 (Simulation time: 0 hr 5 min 16 sec) 
Heartbeat CPU  2 instructions:   49000001 cycles:   23810239 heartbeat IPC: 2.08321 cumulative IPC: 2.05794 (Simulation time: 0 hr 5 min 20 sec) 
Heartbeat CPU  0 instructions:   46000002 cycles:   23852079 heartbeat IPC: 1.96479 cumulative IPC: 1.92855 (Simulation time: 0 hr 5 min 21 sec) 
Heartbeat CPU  3 instructions:   49000003 cycles:   23883858 heartbeat IPC: 1.73457 cumulative IPC: 2.05159 (Simulation time: 0 hr 5 min 21 sec) 
Heartbeat CPU  1 instructions:   49000001 cycles:   23986772 heartbeat IPC: 2.06044 cumulative IPC: 2.04279 (Simulation time: 0 hr 5 min 23 sec) 
Heartbeat CPU  2 instructions:   50000000 cycles:   24338294 heartbeat IPC: 1.89374 cumulative IPC: 2.05438 (Simulation time: 0 hr 5 min 27 sec) 
Heartbeat CPU  0 instructions:   47000001 cycles:   24358716 heartbeat IPC: 1.97380 cumulative IPC: 1.92949 (Simulation time: 0 hr 5 min 27 sec) 
Heartbeat CPU  3 instructions:   50000000 cycles:   24409998 heartbeat IPC: 1.90063 cumulative IPC: 2.04834 (Simulation time: 0 hr 5 min 28 sec) 
Heartbeat CPU  1 instructions:   50000000 cycles:   24445191 heartbeat IPC: 2.18141 cumulative IPC: 2.04539 (Simulation time: 0 hr 5 min 28 sec) 
Heartbeat CPU  0 instructions:   48000000 cycles:   24874036 heartbeat IPC: 1.94054 cumulative IPC: 1.92972 (Simulation time: 0 hr 5 min 34 sec) 
Heartbeat CPU  1 instructions:   51000000 cycles:   24937324 heartbeat IPC: 2.03197 cumulative IPC: 0.04010 (Simulation time: 0 hr 5 min 34 sec) 
Heartbeat CPU  3 instructions:   51000001 cycles:   24942896 heartbeat IPC: 1.87653 cumulative IPC: 0.04009 (Simulation time: 0 hr 5 min 35 sec) 
Heartbeat CPU  2 instructions:   51000002 cycles:   25044974 heartbeat IPC: 1.41507 cumulative IPC: 0.03993 (Simulation time: 0 hr 5 min 36 sec) 
Heartbeat CPU  0 instructions:   49000000 cycles:   25406298 heartbeat IPC: 1.87877 cumulative IPC: 1.92866 (Simulation time: 0 hr 5 min 40 sec) 
Heartbeat CPU  3 instructions:   52000000 cycles:   25474813 heartbeat IPC: 1.87999 cumulative IPC: 0.07851 (Simulation time: 0 hr 5 min 41 sec) 
Heartbeat CPU  1 instructions:   52000000 cycles:   25535143 heartbeat IPC: 1.67275 cumulative IPC: 0.07832 (Simulation time: 0 hr 5 min 42 sec) 
Heartbeat CPU  2 instructions:   52000000 cycles:   25643219 heartbeat IPC: 1.67155 cumulative IPC: 0.07799 (Simulation time: 0 hr 5 min 43 sec) 
Heartbeat CPU  0 instructions:   50000001 cycles:   25941401 heartbeat IPC: 1.86880 cumulative IPC: 1.92742 (Simulation time: 0 hr 5 min 47 sec) 

Warmup complete CPU  0 instructions:   50000001 cycles:   25941401 (Simulation time: 0 hr 5 min 47 sec) 
Warmup complete CPU  1 instructions:   52782253 cycles:   25941400 (Simulation time: 0 hr 5 min 47 sec) 
Warmup complete CPU  2 instructions:   52533580 cycles:   25941401 (Simulation time: 0 hr 5 min 47 sec) 
Warmup complete CPU  3 instructions:   52894539 cycles:   25941400 (Simulation time: 0 hr 5 min 47 sec) 

Heartbeat CPU  3 instructions:   53000003 cycles:   26442891 heartbeat IPC: 1.03298 cumulative IPC: 0.21030 (Simulation time: 0 hr 5 min 48 sec) 
Heartbeat CPU  1 instructions:   53000002 cycles:   26973993 heartbeat IPC: 0.69500 cumulative IPC: 0.21088 (Simulation time: 0 hr 5 min 49 sec) 
Heartbeat CPU  2 instructions:   53000000 cycles:   28715395 heartbeat IPC: 0.32550 cumulative IPC: 0.16814 (Simulation time: 0 hr 5 min 52 sec) 
Heartbeat CPU  0 instructions:   51000000 cycles:   30660850 heartbeat IPC: 0.21189 cumulative IPC: 0.21189 (Simulation time: 0 hr 5 min 56 sec) 
Heartbeat CPU  3 instructions:   54000002 cycles:   31178212 heartbeat IPC: 0.21118 cumulative IPC: 0.21109 (Simulation time: 0 hr 5 min 57 sec) 
Heartbeat CPU  1 instructions:   54000002 cycles:   31601406 heartbeat IPC: 0.21610 cumulative IPC: 0.21515 (Simulation time: 0 hr 5 min 57 sec) 
Heartbeat CPU  2 instructions:   54000001 cycles:   34627149 heartbeat IPC: 0.16915 cumulative IPC: 0.16883 (Simulation time: 0 hr 6 min 3 sec) 
Heartbeat CPU  0 instructions:   52000000 cycles:   35517716 heartbeat IPC: 0.20589 cumulative IPC: 0.20885 (Simulation time: 0 hr 6 min 5 sec) 
Heartbeat CPU  3 instructions:   55000001 cycles:   35899447 heartbeat IPC: 0.21181 cumulative IPC: 0.21143 (Simulation time: 0 hr 6 min 5 sec) 
Heartbeat CPU  1 instructions:   55000002 cycles:   36345252 heartbeat IPC: 0.21080 cumulative IPC: 0.21317 (Simulation time: 0 hr 6 min 6 sec) 
Heartbeat CPU  0 instructions:   53000000 cycles:   40278645 heartbeat IPC: 0.21004 cumulative IPC: 0.20925 (Simulation time: 0 hr 6 min 13 sec) 
Heartbeat CPU  2 instructions:   55000002 cycles:   40436015 heartbeat IPC: 0.17215 cumulative IPC: 0.17016 (Simulation time: 0 hr 6 min 14 sec) 
Heartbeat CPU  3 instructions:   56000000 cycles:   40563335 heartbeat IPC: 0.21441 cumulative IPC: 0.21238 (Simulation time: 0 hr 6 min 14 sec) 
Heartbeat CPU  1 instructions:   56000000 cycles:   41055861 heartbeat IPC: 0.21229 cumulative IPC: 0.21289 (Simulation time: 0 hr 6 min 15 sec) 
Heartbeat CPU  0 instructions:   54000002 cycles:   44938884 heartbeat IPC: 0.21458 cumulative IPC: 0.21055 (Simulation time: 0 hr 6 min 22 sec) 
Heartbeat CPU  3 instructions:   57000000 cycles:   45280984 heartbeat IPC: 0.21197 cumulative IPC: 0.21228 (Simulation time: 0 hr 6 min 23 sec) 
Heartbeat CPU  1 instructions:   57000001 cycles:   45766689 heartbeat IPC: 0.21228 cumulative IPC: 0.21275 (Simulation time: 0 hr 6 min 24 sec) 
Heartbeat CPU  2 instructions:   56000000 cycles:   46438916 heartbeat IPC: 0.16659 cumulative IPC: 0.16911 (Simulation time: 0 hr 6 min 25 sec) 
Heartbeat CPU  0 instructions:   55000000 cycles:   49577919 heartbeat IPC: 0.21556 cumulative IPC: 0.21154 (Simulation time: 0 hr 6 min 31 sec) 
Heartbeat CPU  3 instructions:   58000003 cycles:   50017973 heartbeat IPC: 0.21111 cumulative IPC: 0.21205 (Simulation time: 0 hr 6 min 31 sec) 
Heartbeat CPU  1 instructions:   58000000 cycles:   50429731 heartbeat IPC: 0.21445 cumulative IPC: 0.21307 (Simulation time: 0 hr 6 min 32 sec) 
Heartbeat CPU  2 instructions:   57000002 cycles:   52391189 heartbeat IPC: 0.16800 cumulative IPC: 0.16886 (Simulation time: 0 hr 6 min 36 sec) 
Heartbeat CPU  0 instructions:   56000000 cycles:   54241804 heartbeat IPC: 0.21441 cumulative IPC: 0.21201 (Simulation time: 0 hr 6 min 39 sec) 
Heartbeat CPU  3 instructions:   59000001 cycles:   54652140 heartbeat IPC: 0.21579 cumulative IPC: 0.21265 (Simulation time: 0 hr 6 min 40 sec) 
Heartbeat CPU  1 instructions:   59000001 cycles:   55109414 heartbeat IPC: 0.21369 cumulative IPC: 0.21317 (Simulation time: 0 hr 6 min 41 sec) 
Heartbeat CPU  2 instructions:   58000001 cycles:   58345684 heartbeat IPC: 0.16794 cumulative IPC: 0.16869 (Simulation time: 0 hr 6 min 47 sec) 
Heartbeat CPU  0 instructions:   57000000 cycles:   58869948 heartbeat IPC: 0.21607 cumulative IPC: 0.21258 (Simulation time: 0 hr 6 min 48 sec) 
Heartbeat CPU  3 instructions:   60000000 cycles:   59474773 heartbeat IPC: 0.20736 cumulative IPC: 0.21189 (Simulation time: 0 hr 6 min 49 sec) 
Heartbeat CPU  1 instructions:   60000000 cycles:   59692299 heartbeat IPC: 0.21820 cumulative IPC: 0.21385 (Simulation time: 0 hr 6 min 49 sec) 
Heartbeat CPU  0 instructions:   58000002 cycles:   63536904 heartbeat IPC: 0.21427 cumulative IPC: 0.21279 (Simulation time: 0 hr 6 min 56 sec) 
Heartbeat CPU  3 instructions:   61000002 cycles:   64131973 heartbeat IPC: 0.21472 cumulative IPC: 0.21224 (Simulation time: 0 hr 6 min 58 sec) 
Heartbeat CPU  2 instructions:   59000003 cycles:   64278380 heartbeat IPC: 0.16856 cumulative IPC: 0.16867 (Simulation time: 0 hr 6 min 58 sec) 
Heartbeat CPU  1 instructions:   61000000 cycles:   64518585 heartbeat IPC: 0.20720 cumulative IPC: 0.21302 (Simulation time: 0 hr 6 min 58 sec) 
Heartbeat CPU  0 instructions:   59000003 cycles:   68162714 heartbeat IPC: 0.21618 cumulative IPC: 0.21316 (Simulation time: 0 hr 7 min 5 sec) 
Heartbeat CPU  3 instructions:   62000001 cycles:   68749237 heartbeat IPC: 0.21658 cumulative IPC: 0.21271 (Simulation time: 0 hr 7 min 6 sec) 
Heartbeat CPU  1 instructions:   62000000 cycles:   69177284 heartbeat IPC: 0.21465 cumulative IPC: 0.21320 (Simulation time: 0 hr 7 min 7 sec) 
Heartbeat CPU  2 instructions:   60000000 cycles:   70135652 heartbeat IPC: 0.17073 cumulative IPC: 0.16895 (Simulation time: 0 hr 7 min 9 sec) 
Heartbeat CPU  0 instructions:   60000000 cycles:   72802483 heartbeat IPC: 0.21553 cumulative IPC: 0.21340 (Simulation time: 0 hr 7 min 14 sec) 
Heartbeat CPU  3 instructions:   63000001 cycles:   73484313 heartbeat IPC: 0.21119 cumulative IPC: 0.21255 (Simulation time: 0 hr 7 min 15 sec) 
Heartbeat CPU  1 instructions:   63000000 cycles:   74000755 heartbeat IPC: 0.20732 cumulative IPC: 0.21261 (Simulation time: 0 hr 7 min 16 sec) 
Heartbeat CPU  2 instructions:   61000001 cycles:   75934839 heartbeat IPC: 0.17244 cumulative IPC: 0.16935 (Simulation time: 0 hr 7 min 20 sec) 
Heartbeat CPU  0 instructions:   61000000 cycles:   77477799 heartbeat IPC: 0.21389 cumulative IPC: 0.21344 (Simulation time: 0 hr 7 min 23 sec) 
Heartbeat CPU  3 instructions:   64000000 cycles:   78360543 heartbeat IPC: 0.20508 cumulative IPC: 0.21186 (Simulation time: 0 hr 7 min 25 sec) 
Heartbeat CPU  1 instructions:   64000000 cycles:   78374951 heartbeat IPC: 0.22861 cumulative IPC: 0.21394 (Simulation time: 0 hr 7 min 25 sec) 
Heartbeat CPU  2 instructions:   62000002 cycles:   80648832 heartbeat IPC: 0.21213 cumulative IPC: 0.17304 (Simulation time: 0 hr 7 min 29 sec) 
Heartbeat CPU  0 instructions:   62000003 cycles:   82214255 heartbeat IPC: 0.21113 cumulative IPC: 0.21325 (Simulation time: 0 hr 7 min 32 sec) 
Heartbeat CPU  3 instructions:   65000002 cycles:   83206427 heartbeat IPC: 0.20636 cumulative IPC: 0.21139 (Simulation time: 0 hr 7 min 34 sec) 
Heartbeat CPU  1 instructions:   65000000 cycles:   83293718 heartbeat IPC: 0.20330 cumulative IPC: 0.21303 (Simulation time: 0 hr 7 min 34 sec) 
Heartbeat CPU  2 instructions:   63000002 cycles:   86398639 heartbeat IPC: 0.17392 cumulative IPC: 0.17312 (Simulation time: 0 hr 7 min 40 sec) 
Heartbeat CPU  0 instructions:   63000000 cycles:   86977692 heartbeat IPC: 0.20993 cumulative IPC: 0.21299 (Simulation time: 0 hr 7 min 41 sec) 
Heartbeat CPU  3 instructions:   66000001 cycles:   87884761 heartbeat IPC: 0.21375 cumulative IPC: 0.21157 (Simulation time: 0 hr 7 min 43 sec) 
Heartbeat CPU  1 instructions:   66000000 cycles:   88078771 heartbeat IPC: 0.20898 cumulative IPC: 0.21272 (Simulation time: 0 hr 7 min 43 sec) 
Heartbeat CPU  0 instructions:   64000000 cycles:   91986669 heartbeat IPC: 0.19964 cumulative IPC: 0.21198 (Simulation time: 0 hr 7 min 51 sec) 
Heartbeat CPU  2 instructions:   64000000 cycles:   92052463 heartbeat IPC: 0.17687 cumulative IPC: 0.17344 (Simulation time: 0 hr 7 min 51 sec) 
Heartbeat CPU  3 instructions:   67000001 cycles:   92479829 heartbeat IPC: 0.21762 cumulative IPC: 0.21199 (Simulation time: 0 hr 7 min 51 sec) 
Heartbeat CPU  1 instructions:   67000003 cycles:   92692833 heartbeat IPC: 0.21673 cumulative IPC: 0.21300 (Simulation time: 0 hr 7 min 52 sec) 
Heartbeat CPU  0 instructions:   65000001 cycles:   96214919 heartbeat IPC: 0.23650 cumulative IPC: 0.21345 (Simulation time: 0 hr 7 min 59 sec) 
Heartbeat CPU  2 instructions:   65000000 cycles:   96422993 heartbeat IPC: 0.22881 cumulative IPC: 0.17687 (Simulation time: 0 hr 8 min 0 sec) 
Heartbeat CPU  1 instructions:   68000000 cycles:   97150278 heartbeat IPC: 0.22434 cumulative IPC: 0.21371 (Simulation time: 0 hr 8 min 2 sec) 
Heartbeat CPU  3 instructions:   68000000 cycles:   97194633 heartbeat IPC: 0.21210 cumulative IPC: 0.21200 (Simulation time: 0 hr 8 min 2 sec) 
Heartbeat CPU  0 instructions:   66000000 cycles:   99258767 heartbeat IPC: 0.32853 cumulative IPC: 0.21823 (Simulation time: 0 hr 8 min 6 sec) 
Heartbeat CPU  0 instructions:   67000002 cycles:   99791906 heartbeat IPC: 1.87569 cumulative IPC: 0.23019 (Simulation time: 0 hr 8 min 8 sec) 
Heartbeat CPU  2 instructions:   66000003 cycles:  100798769 heartbeat IPC: 0.22853 cumulative IPC: 0.17989 (Simulation time: 0 hr 8 min 10 sec) 
Heartbeat CPU  1 instructions:   69000000 cycles:  101629666 heartbeat IPC: 0.22324 cumulative IPC: 0.21427 (Simulation time: 0 hr 8 min 12 sec) 
Heartbeat CPU  3 instructions:   69000002 cycles:  101794903 heartbeat IPC: 0.21738 cumulative IPC: 0.21232 (Simulation time: 0 hr 8 min 13 sec) 
Heartbeat CPU  2 instructions:   67000003 cycles:  102189922 heartbeat IPC: 0.71883 cumulative IPC: 0.18973 (Simulation time: 0 hr 8 min 14 sec) 
Heartbeat CPU  0 instructions:   68000000 cycles:  103148522 heartbeat IPC: 0.29792 cumulative IPC: 0.23314 (Simulation time: 0 hr 8 min 16 sec) 
Heartbeat CPU  1 instructions:   70000001 cycles:  106314118 heartbeat IPC: 0.21347 cumulative IPC: 0.21422 (Simulation time: 0 hr 8 min 22 sec) 
Heartbeat CPU  3 instructions:   70000000 cycles:  106495283 heartbeat IPC: 0.21275 cumulative IPC: 0.21235 (Simulation time: 0 hr 8 min 22 sec) 
Heartbeat CPU  2 instructions:   68000000 cycles:  106758913 heartbeat IPC: 0.21887 cumulative IPC: 0.19137 (Simulation time: 0 hr 8 min 23 sec) 
Heartbeat CPU  0 instructions:   69000000 cycles:  107765250 heartbeat IPC: 0.21660 cumulative IPC: 0.23221 (Simulation time: 0 hr 8 min 25 sec) 
Heartbeat CPU  1 instructions:   71000002 cycles:  111008656 heartbeat IPC: 0.21301 cumulative IPC: 0.21416 (Simulation time: 0 hr 8 min 31 sec) 
Heartbeat CPU  3 instructions:   71000000 cycles:  111206316 heartbeat IPC: 0.21227 cumulative IPC: 0.21234 (Simulation time: 0 hr 8 min 31 sec) 
Heartbeat CPU  0 instructions:   70000002 cycles:  112386908 heartbeat IPC: 0.21637 cumulative IPC: 0.23136 (Simulation time: 0 hr 8 min 34 sec) 
Heartbeat CPU  2 instructions:   69000002 cycles:  112519647 heartbeat IPC: 0.17359 cumulative IPC: 0.19019 (Simulation time: 0 hr 8 min 34 sec) 
Heartbeat CPU  1 instructions:   72000000 cycles:  115731696 heartbeat IPC: 0.21173 cumulative IPC: 0.21403 (Simulation time: 0 hr 8 min 40 sec) 
Heartbeat CPU  3 instructions:   72000000 cycles:  115905930 heartbeat IPC: 0.21278 cumulative IPC: 0.21237 (Simulation time: 0 hr 8 min 40 sec) 
Heartbeat CPU  0 instructions:   71000002 cycles:  117152022 heartbeat IPC: 0.20986 cumulative IPC: 0.23024 (Simulation time: 0 hr 8 min 43 sec) 
Heartbeat CPU  2 instructions:   70000002 cycles:  118391507 heartbeat IPC: 0.17030 cumulative IPC: 0.18893 (Simulation time: 0 hr 8 min 45 sec) 
Heartbeat CPU  1 instructions:   73000000 cycles:  120472824 heartbeat IPC: 0.21092 cumulative IPC: 0.21387 (Simulation time: 0 hr 8 min 49 sec) 
Heartbeat CPU  3 instructions:   73000002 cycles:  120558821 heartbeat IPC: 0.21492 cumulative IPC: 0.21249 (Simulation time: 0 hr 8 min 49 sec) 
Heartbeat CPU  0 instructions:   72000000 cycles:  121862383 heartbeat IPC: 0.21230 cumulative IPC: 0.22936 (Simulation time: 0 hr 8 min 52 sec) 
Heartbeat CPU  2 instructions:   71000000 cycles:  124306577 heartbeat IPC: 0.16906 cumulative IPC: 0.18773 (Simulation time: 0 hr 8 min 56 sec) 
Heartbeat CPU  1 instructions:   74000000 cycles:  125105758 heartbeat IPC: 0.21585 cumulative IPC: 0.21397 (Simulation time: 0 hr 8 min 58 sec) 
Heartbeat CPU  3 instructions:   74000000 cycles:  125280704 heartbeat IPC: 0.21178 cumulative IPC: 0.21246 (Simulation time: 0 hr 8 min 58 sec) 
Heartbeat CPU  0 instructions:   73000000 cycles:  126579325 heartbeat IPC: 0.21200 cumulative IPC: 0.22854 (Simulation time: 0 hr 9 min 1 sec) 
Heartbeat CPU  1 instructions:   75000000 cycles:  129795816 heartbeat IPC: 0.21322 cumulative IPC: 0.21393 (Simulation time: 0 hr 9 min 7 sec) 
Heartbeat CPU  3 instructions:   75000003 cycles:  129809417 heartbeat IPC: 0.22081 cumulative IPC: 0.21282 (Simulation time: 0 hr 9 min 7 sec) 
Heartbeat CPU  2 instructions:   72000000 cycles:  130160392 heartbeat IPC: 0.17083 cumulative IPC: 0.18678 (Simulation time: 0 hr 9 min 7 sec) 
Heartbeat CPU  0 instructions:   74000002 cycles:  131330514 heartbeat IPC: 0.21047 cumulative IPC: 0.22773 (Simulation time: 0 hr 9 min 10 sec) 
Heartbeat CPU  1 instructions:   76000000 cycles:  134419121 heartbeat IPC: 0.21630 cumulative IPC: 0.21403 (Simulation time: 0 hr 9 min 15 sec) 
Heartbeat CPU  3 instructions:   76000000 cycles:  134488337 heartbeat IPC: 0.21372 cumulative IPC: 0.21286 (Simulation time: 0 hr 9 min 16 sec) 
Heartbeat CPU  0 instructions:   75000002 cycles:  135989071 heartbeat IPC: 0.21466 cumulative IPC: 0.22717 (Simulation time: 0 hr 9 min 19 sec) 
Heartbeat CPU  2 instructions:   73000002 cycles:  136068034 heartbeat IPC: 0.16927 cumulative IPC: 0.18584 (Simulation time: 0 hr 9 min 19 sec) 
Heartbeat CPU  1 instructions:   77000002 cycles:  139082750 heartbeat IPC: 0.21443 cumulative IPC: 0.21405 (Simulation time: 0 hr 9 min 24 sec) 
Heartbeat CPU  3 instructions:   77000001 cycles:  139146582 heartbeat IPC: 0.21467 cumulative IPC: 0.21294 (Simulation time: 0 hr 9 min 25 sec) 
Heartbeat CPU  0 instructions:   76000000 cycles:  140621909 heartbeat IPC: 0.21585 cumulative IPC: 0.22672 (Simulation time: 0 hr 9 min 27 sec) 
Heartbeat CPU  2 instructions:   74000002 cycles:  142019758 heartbeat IPC: 0.16802 cumulative IPC: 0.18493 (Simulation time: 0 hr 9 min 30 sec) 
Heartbeat CPU  3 instructions:   78000002 cycles:  143660692 heartbeat IPC: 0.22153 cumulative IPC: 0.21327 (Simulation time: 0 hr 9 min 33 sec) 
Heartbeat CPU  1 instructions:   78000000 cycles:  143743951 heartbeat IPC: 0.21454 cumulative IPC: 0.21407 (Simulation time: 0 hr 9 min 33 sec) 
Heartbeat CPU  0 instructions:   77000001 cycles:  145292239 heartbeat IPC: 0.21412 cumulative IPC: 0.22622 (Simulation time: 0 hr 9 min 36 sec) 
Heartbeat CPU  2 instructions:   75000003 cycles:  147976476 heartbeat IPC: 0.16788 cumulative IPC: 0.18410 (Simulation time: 0 hr 9 min 41 sec) 
Heartbeat CPU  3 instructions:   79000001 cycles:  148308492 heartbeat IPC: 0.21516 cumulative IPC: 0.21334 (Simulation time: 0 hr 9 min 42 sec) 
Heartbeat CPU  1 instructions:   79000003 cycles:  148463034 heartbeat IPC: 0.21191 cumulative IPC: 0.21398 (Simulation time: 0 hr 9 min 42 sec) 
Heartbeat CPU  0 instructions:   78000000 cycles:  149972234 heartbeat IPC: 0.21368 cumulative IPC: 0.22575 (Simulation time: 0 hr 9 min 45 sec) 
Heartbeat CPU  3 instructions:   80000000 cycles:  153025155 heartbeat IPC: 0.21201 cumulative IPC: 0.21329 (Simulation time: 0 hr 9 min 51 sec) 
Heartbeat CPU  1 instructions:   80000000 cycles:  153320642 heartbeat IPC: 0.20586 cumulative IPC: 0.21367 (Simulation time: 0 hr 9 min 52 sec) 
Heartbeat CPU  2 instructions:   76000000 cycles:  153859430 heartbeat IPC: 0.16998 cumulative IPC: 0.18345 (Simulation time: 0 hr 9 min 53 sec) 
Heartbeat CPU  0 instructions:   79000002 cycles:  154628580 heartbeat IPC: 0.21476 cumulative IPC: 0.22535 (Simulation time: 0 hr 9 min 54 sec) 
Heartbeat CPU  3 instructions:   81000000 cycles:  157791656 heartbeat IPC: 0.20980 cumulative IPC: 0.21316 (Simulation time: 0 hr 10 min 0 sec) 
Heartbeat CPU  1 instructions:   81000000 cycles:  158125344 heartbeat IPC: 0.20813 cumulative IPC: 0.21347 (Simulation time: 0 hr 10 min 1 sec) 
Heartbeat CPU  0 instructions:   80000000 cycles:  159330253 heartbeat IPC: 0.21269 cumulative IPC: 0.22491 (Simulation time: 0 hr 10 min 3 sec) 
Heartbeat CPU  2 instructions:   77000002 cycles:  159786042 heartbeat IPC: 0.16873 cumulative IPC: 0.18280 (Simulation time: 0 hr 10 min 4 sec) 
Heartbeat CPU  3 instructions:   82000003 cycles:  162723475 heartbeat IPC: 0.20277 cumulative IPC: 0.21279 (Simulation time: 0 hr 10 min 10 sec) 
Heartbeat CPU  1 instructions:   82000003 cycles:  162772786 heartbeat IPC: 0.21517 cumulative IPC: 0.21353 (Simulation time: 0 hr 10 min 10 sec) 
Heartbeat CPU  0 instructions:   81000002 cycles:  163978234 heartbeat IPC: 0.21515 cumulative IPC: 0.22458 (Simulation time: 0 hr 10 min 12 sec) 
Heartbeat CPU  2 instructions:   78000000 cycles:  165669077 heartbeat IPC: 0.16998 cumulative IPC: 0.18226 (Simulation time: 0 hr 10 min 16 sec) 
Heartbeat CPU  3 instructions:   83000000 cycles:  167677551 heartbeat IPC: 0.20185 cumulative IPC: 0.21240 (Simulation time: 0 hr 10 min 19 sec) 
Heartbeat CPU  1 instructions:   83000000 cycles:  167823720 heartbeat IPC: 0.19798 cumulative IPC: 0.21298 (Simulation time: 0 hr 10 min 20 sec) 
Heartbeat CPU  0 instructions:   82000003 cycles:  168531514 heartbeat IPC: 0.21962 cumulative IPC: 0.22442 (Simulation time: 0 hr 10 min 21 sec) 
Heartbeat CPU  2 instructions:   79000000 cycles:  171562689 heartbeat IPC: 0.16968 cumulative IPC: 0.18175 (Simulation time: 0 hr 10 min 27 sec) 
Heartbeat CPU  3 instructions:   84000000 cycles:  172339311 heartbeat IPC: 0.21451 cumulative IPC: 0.21247 (Simulation time: 0 hr 10 min 28 sec) 
Heartbeat CPU  1 instructions:   84000000 cycles:  172696218 heartbeat IPC: 0.20523 cumulative IPC: 0.21272 (Simulation time: 0 hr 10 min 29 sec) 
Heartbeat CPU  0 instructions:   83000002 cycles:  173198967 heartbeat IPC: 0.21425 cumulative IPC: 0.22410 (Simulation time: 0 hr 10 min 30 sec) 
Heartbeat CPU  3 instructions:   85000002 cycles:  177013379 heartbeat IPC: 0.21395 cumulative IPC: 0.21252 (Simulation time: 0 hr 10 min 37 sec) 
Heartbeat CPU  1 instructions:   85000000 cycles:  177286184 heartbeat IPC: 0.21787 cumulative IPC: 0.21288 (Simulation time: 0 hr 10 min 38 sec) 
Heartbeat CPU  2 instructions:   80000000 cycles:  177293405 heartbeat IPC: 0.17450 cumulative IPC: 0.18147 (Simulation time: 0 hr 10 min 38 sec) 
Heartbeat CPU  0 instructions:   84000000 cycles:  177795241 heartbeat IPC: 0.21757 cumulative IPC: 0.22390 (Simulation time: 0 hr 10 min 39 sec) 
Heartbeat CPU  3 instructions:   86000000 cycles:  181512490 heartbeat IPC: 0.22227 cumulative IPC: 0.21280 (Simulation time: 0 hr 10 min 46 sec) 
Heartbeat CPU  1 instructions:   86000002 cycles:  181731780 heartbeat IPC: 0.22494 cumulative IPC: 0.21322 (Simulation time: 0 hr 10 min 46 sec) 
Heartbeat CPU  0 instructions:   85000000 cycles:  182449820 heartbeat IPC: 0.21484 cumulative IPC: 0.22363 (Simulation time: 0 hr 10 min 48 sec) 
Heartbeat CPU  2 instructions:   81000001 cycles:  183154249 heartbeat IPC: 0.17062 cumulative IPC: 0.18107 (Simulation time: 0 hr 10 min 49 sec) 
Heartbeat CPU  3 instructions:   87000001 cycles:  186234154 heartbeat IPC: 0.21179 cumulative IPC: 0.21277 (Simulation time: 0 hr 10 min 55 sec) 
Heartbeat CPU  1 instructions:   87000001 cycles:  186396705 heartbeat IPC: 0.21437 cumulative IPC: 0.21325 (Simulation time: 0 hr 10 min 56 sec) 
Heartbeat CPU  0 instructions:   86000002 cycles:  187814799 heartbeat IPC: 0.18639 cumulative IPC: 0.22240 (Simulation time: 0 hr 10 min 58 sec) 
Heartbeat CPU  2 instructions:   82000001 cycles:  188701737 heartbeat IPC: 0.18026 cumulative IPC: 0.18104 (Simulation time: 0 hr 11 min 0 sec) 
Heartbeat CPU  1 instructions:   88000000 cycles:  190990006 heartbeat IPC: 0.21771 cumulative IPC: 0.21338 (Simulation time: 0 hr 11 min 4 sec) 
Heartbeat CPU  3 instructions:   88000000 cycles:  191006928 heartbeat IPC: 0.20952 cumulative IPC: 0.21268 (Simulation time: 0 hr 11 min 4 sec) 
Heartbeat CPU  2 instructions:   83000000 cycles:  194396000 heartbeat IPC: 0.17562 cumulative IPC: 0.18086 (Simulation time: 0 hr 11 min 10 sec) 
Heartbeat CPU  3 instructions:   89000003 cycles:  195535345 heartbeat IPC: 0.22083 cumulative IPC: 0.21289 (Simulation time: 0 hr 11 min 12 sec) 
Heartbeat CPU  1 instructions:   89000002 cycles:  195600460 heartbeat IPC: 0.21690 cumulative IPC: 0.21347 (Simulation time: 0 hr 11 min 12 sec) 
Heartbeat CPU  0 instructions:   87000000 cycles:  196280905 heartbeat IPC: 0.11812 cumulative IPC: 0.21721 (Simulation time: 0 hr 11 min 13 sec) 
Heartbeat CPU  2 instructions:   84000000 cycles:  199707372 heartbeat IPC: 0.18828 cumulative IPC: 0.18109 (Simulation time: 0 hr 11 min 20 sec) 
Heartbeat CPU  3 instructions:   90000001 cycles:  200172479 heartbeat IPC: 0.21565 cumulative IPC: 0.21297 (Simulation time: 0 hr 11 min 21 sec) 
Heartbeat CPU  1 instructions:   90000002 cycles:  200364638 heartbeat IPC: 0.20990 cumulative IPC: 0.21338 (Simulation time: 0 hr 11 min 21 sec) 
Heartbeat CPU  0 instructions:   88000000 cycles:  203729092 heartbeat IPC: 0.13426 cumulative IPC: 0.21374 (Simulation time: 0 hr 11 min 27 sec) 
Heartbeat CPU  3 instructions:   91000002 cycles:  204974469 heartbeat IPC: 0.20825 cumulative IPC: 0.21284 (Simulation time: 0 hr 11 min 29 sec) 
Heartbeat CPU  1 instructions:   91000003 cycles:  205050708 heartbeat IPC: 0.21340 cumulative IPC: 0.21338 (Simulation time: 0 hr 11 min 29 sec) 
Heartbeat CPU  2 instructions:   85000001 cycles:  205865859 heartbeat IPC: 0.16238 cumulative IPC: 0.18044 (Simulation time: 0 hr 11 min 31 sec) 
Heartbeat CPU  3 instructions:   92000000 cycles:  209731232 heartbeat IPC: 0.21023 cumulative IPC: 0.21277 (Simulation time: 0 hr 11 min 38 sec) 
Heartbeat CPU  1 instructions:   92000000 cycles:  209736976 heartbeat IPC: 0.21339 cumulative IPC: 0.21338 (Simulation time: 0 hr 11 min 38 sec) 
Heartbeat CPU  2 instructions:   86000003 cycles:  211782871 heartbeat IPC: 0.16900 cumulative IPC: 0.18008 (Simulation time: 0 hr 11 min 41 sec) 
Heartbeat CPU  0 instructions:   89000000 cycles:  212171619 heartbeat IPC: 0.11845 cumulative IPC: 0.20942 (Simulation time: 0 hr 11 min 42 sec) 
Heartbeat CPU  1 instructions:   93000002 cycles:  214377103 heartbeat IPC: 0.21551 cumulative IPC: 0.21343 (Simulation time: 0 hr 11 min 46 sec) 
Heartbeat CPU  3 instructions:   93000002 cycles:  214423898 heartbeat IPC: 0.21310 cumulative IPC: 0.21278 (Simulation time: 0 hr 11 min 46 sec) 
Heartbeat CPU  2 instructions:   87000000 cycles:  217875705 heartbeat IPC: 0.16413 cumulative IPC: 0.17957 (Simulation time: 0 hr 11 min 52 sec) 
Heartbeat CPU  1 instructions:   94000002 cycles:  219004438 heartbeat IPC: 0.21611 cumulative IPC: 0.21349 (Simulation time: 0 hr 11 min 54 sec) 
Heartbeat CPU  3 instructions:   94000002 cycles:  219203647 heartbeat IPC: 0.20922 cumulative IPC: 0.21269 (Simulation time: 0 hr 11 min 54 sec) 
Heartbeat CPU  0 instructions:   90000000 cycles:  220699616 heartbeat IPC: 0.11726 cumulative IPC: 0.20538 (Simulation time: 0 hr 11 min 57 sec) 
Heartbeat CPU  2 instructions:   88000000 cycles:  223548360 heartbeat IPC: 0.17628 cumulative IPC: 0.17948 (Simulation time: 0 hr 12 min 2 sec) 
Heartbeat CPU  1 instructions:   95000000 cycles:  223612598 heartbeat IPC: 0.21701 cumulative IPC: 0.21358 (Simulation time: 0 hr 12 min 2 sec) 
Heartbeat CPU  3 instructions:   95000000 cycles:  223796964 heartbeat IPC: 0.21771 cumulative IPC: 0.21281 (Simulation time: 0 hr 12 min 3 sec) 
Heartbeat CPU  0 instructions:   91000001 cycles:  225794960 heartbeat IPC: 0.19626 cumulative IPC: 0.20515 (Simulation time: 0 hr 12 min 7 sec) 
Heartbeat CPU  1 instructions:   96000000 cycles:  228194258 heartbeat IPC: 0.21826 cumulative IPC: 0.21368 (Simulation time: 0 hr 12 min 11 sec) 
Heartbeat CPU  3 instructions:   96000000 cycles:  228322203 heartbeat IPC: 0.22098 cumulative IPC: 0.21299 (Simulation time: 0 hr 12 min 12 sec) 
Heartbeat CPU  2 instructions:   89000003 cycles:  229108075 heartbeat IPC: 0.17987 cumulative IPC: 0.17949 (Simulation time: 0 hr 12 min 13 sec) 
Heartbeat CPU  0 instructions:   92000000 cycles:  230546788 heartbeat IPC: 0.21045 cumulative IPC: 0.20527 (Simulation time: 0 hr 12 min 16 sec) 
Heartbeat CPU  1 instructions:   97000001 cycles:  232842716 heartbeat IPC: 0.21513 cumulative IPC: 0.21371 (Simulation time: 0 hr 12 min 20 sec) 
Heartbeat CPU  3 instructions:   97000002 cycles:  232957380 heartbeat IPC: 0.21574 cumulative IPC: 0.21305 (Simulation time: 0 hr 12 min 21 sec) 
Heartbeat CPU  2 instructions:   90000002 cycles:  234652823 heartbeat IPC: 0.18035 cumulative IPC: 0.17951 (Simulation time: 0 hr 12 min 24 sec) 
Heartbeat CPU  0 instructions:   93000003 cycles:  235247963 heartbeat IPC: 0.21271 cumulative IPC: 0.20544 (Simulation time: 0 hr 12 min 25 sec) 
Heartbeat CPU  1 instructions:   98000000 cycles:  237429210 heartbeat IPC: 0.21803 cumulative IPC: 0.21381 (Simulation time: 0 hr 12 min 29 sec) 
Heartbeat CPU  3 instructions:   98000000 cycles:  237650871 heartbeat IPC: 0.21306 cumulative IPC: 0.21305 (Simulation time: 0 hr 12 min 30 sec) 
Heartbeat CPU  0 instructions:   94000000 cycles:  239885852 heartbeat IPC: 0.21561 cumulative IPC: 0.20566 (Simulation time: 0 hr 12 min 34 sec) 
Heartbeat CPU  2 instructions:   91000001 cycles:  240668850 heartbeat IPC: 0.16622 cumulative IPC: 0.17914 (Simulation time: 0 hr 12 min 36 sec) 
Heartbeat CPU  1 instructions:   99000000 cycles:  241987715 heartbeat IPC: 0.21937 cumulative IPC: 0.21393 (Simulation time: 0 hr 12 min 38 sec) 
Heartbeat CPU  3 instructions:   99000001 cycles:  242268431 heartbeat IPC: 0.21656 cumulative IPC: 0.21313 (Simulation time: 0 hr 12 min 39 sec) 
Heartbeat CPU  0 instructions:   95000003 cycles:  244358860 heartbeat IPC: 0.22356 cumulative IPC: 0.20603 (Simulation time: 0 hr 12 min 43 sec) 
*** Reached end of trace for Core: 1 Repeating trace: /data3/STREAMING/traces/streaming_phase5_core1.trace.xz
*** Reached end of trace for Core: 3 Repeating trace: /data3/STREAMING/traces/streaming_phase5_core3.trace.xz
Heartbeat CPU  2 instructions:   92000000 cycles:  246607565 heartbeat IPC: 0.16839 cumulative IPC: 0.17885 (Simulation time: 0 hr 12 min 47 sec) 
Heartbeat CPU  1 instructions:  100000000 cycles:  246640839 heartbeat IPC: 0.21491 cumulative IPC: 0.21395 (Simulation time: 0 hr 12 min 47 sec) 
Heartbeat CPU  3 instructions:  100000000 cycles:  246773418 heartbeat IPC: 0.22198 cumulative IPC: 0.21331 (Simulation time: 0 hr 12 min 48 sec) 
Heartbeat CPU  0 instructions:   96000000 cycles:  248820591 heartbeat IPC: 0.22413 cumulative IPC: 0.20639 (Simulation time: 0 hr 12 min 52 sec) 
Heartbeat CPU  1 instructions:  101000000 cycles:  251282273 heartbeat IPC: 0.21545 cumulative IPC: 0.21398 (Simulation time: 0 hr 12 min 56 sec) 
Heartbeat CPU  3 instructions:  101000002 cycles:  251346718 heartbeat IPC: 0.21866 cumulative IPC: 0.21342 (Simulation time: 0 hr 12 min 56 sec) 
Heartbeat CPU  2 instructions:   93000002 cycles:  251876207 heartbeat IPC: 0.18980 cumulative IPC: 0.17911 (Simulation time: 0 hr 12 min 58 sec) 
Heartbeat CPU  0 instructions:   97000002 cycles:  253345509 heartbeat IPC: 0.22100 cumulative IPC: 0.20668 (Simulation time: 0 hr 13 min 1 sec) 
Heartbeat CPU  2 instructions:   94000000 cycles:  253864429 heartbeat IPC: 0.50296 cumulative IPC: 0.18193 (Simulation time: 0 hr 13 min 2 sec) 
Heartbeat CPU  2 instructions:   95000002 cycles:  255743383 heartbeat IPC: 0.53221 cumulative IPC: 0.18480 (Simulation time: 0 hr 13 min 7 sec) 
Heartbeat CPU  1 instructions:  102000000 cycles:  255812811 heartbeat IPC: 0.22072 cumulative IPC: 0.21411 (Simulation time: 0 hr 13 min 7 sec) 
Heartbeat CPU  3 instructions:  102000003 cycles:  256003525 heartbeat IPC: 0.21474 cumulative IPC: 0.21344 (Simulation time: 0 hr 13 min 7 sec) 
Heartbeat CPU  2 instructions:   96000000 cycles:  257637297 heartbeat IPC: 0.52801 cumulative IPC: 0.18760 (Simulation time: 0 hr 13 min 11 sec) 
Heartbeat CPU  0 instructions:   98000001 cycles:  257749162 heartbeat IPC: 0.22708 cumulative IPC: 0.20707 (Simulation time: 0 hr 13 min 12 sec) 
Heartbeat CPU  2 instructions:   97000002 cycles:  259550110 heartbeat IPC: 0.52279 cumulative IPC: 0.19035 (Simulation time: 0 hr 13 min 16 sec) 
Heartbeat CPU  1 instructions:  103000000 cycles:  260316992 heartbeat IPC: 0.22202 cumulative IPC: 0.21426 (Simulation time: 0 hr 13 min 18 sec) 
Heartbeat CPU  3 instructions:  103000003 cycles:  260781885 heartbeat IPC: 0.20928 cumulative IPC: 0.21336 (Simulation time: 0 hr 13 min 19 sec) 
Heartbeat CPU  2 instructions:   98000003 cycles:  261465216 heartbeat IPC: 0.52216 cumulative IPC: 0.19304 (Simulation time: 0 hr 13 min 21 sec) 
Heartbeat CPU  0 instructions:   99000002 cycles:  262191460 heartbeat IPC: 0.22511 cumulative IPC: 0.20741 (Simulation time: 0 hr 13 min 22 sec) 
Heartbeat CPU  2 instructions:   99000000 cycles:  263353267 heartbeat IPC: 0.52965 cumulative IPC: 0.19572 (Simulation time: 0 hr 13 min 25 sec) 
*** Reached end of trace for Core: 2 Repeating trace: /data3/STREAMING/traces/streaming_phase5_core2.trace.xz
Heartbeat CPU  1 instructions:  104000000 cycles:  265088141 heartbeat IPC: 0.20959 cumulative IPC: 0.21417 (Simulation time: 0 hr 13 min 29 sec) 
Heartbeat CPU  3 instructions:  104000000 cycles:  265572520 heartbeat IPC: 0.20874 cumulative IPC: 0.21327 (Simulation time: 0 hr 13 min 30 sec) 
Heartbeat CPU  2 instructions:  100000000 cycles:  265653288 heartbeat IPC: 0.43478 cumulative IPC: 0.19801 (Simulation time: 0 hr 13 min 30 sec) 
*** Reached end of trace for Core: 0 Repeating trace: /data3/STREAMING/traces/streaming_phase5_core0.trace.xz
Heartbeat CPU  0 instructions:  100000000 cycles:  266563013 heartbeat IPC: 0.22875 cumulative IPC: 0.20780 (Simulation time: 0 hr 13 min 32 sec) 
Heartbeat CPU  2 instructions:  101000001 cycles:  268027889 heartbeat IPC: 0.42112 cumulative IPC: 0.20020 (Simulation time: 0 hr 13 min 36 sec) 
Heartbeat CPU  0 instructions:  101000002 cycles:  269618899 heartbeat IPC: 0.32724 cumulative IPC: 0.20929 (Simulation time: 0 hr 13 min 40 sec) 
Heartbeat CPU  1 instructions:  105000001 cycles:  269722478 heartbeat IPC: 0.21578 cumulative IPC: 0.21420 (Simulation time: 0 hr 13 min 40 sec) 
Heartbeat CPU  2 instructions:  102000002 cycles:  269810088 heartbeat IPC: 0.56111 cumulative IPC: 0.20284 (Simulation time: 0 hr 13 min 41 sec) 
Heartbeat CPU  3 instructions:  105000000 cycles:  270337483 heartbeat IPC: 0.20987 cumulative IPC: 0.21320 (Simulation time: 0 hr 13 min 42 sec) 
Heartbeat CPU  2 instructions:  103000001 cycles:  271491608 heartbeat IPC: 0.59470 cumulative IPC: 0.20552 (Simulation time: 0 hr 13 min 45 sec) 
Heartbeat CPU  0 instructions:  102000000 cycles:  274175044 heartbeat IPC: 0.21948 cumulative IPC: 0.20948 (Simulation time: 0 hr 13 min 51 sec) 
Heartbeat CPU  1 instructions:  106000000 cycles:  274253782 heartbeat IPC: 0.22069 cumulative IPC: 0.21432 (Simulation time: 0 hr 13 min 51 sec) 
Heartbeat CPU  2 instructions:  104000000 cycles:  274396099 heartbeat IPC: 0.34429 cumulative IPC: 0.20715 (Simulation time: 0 hr 13 min 51 sec) 
Heartbeat CPU  3 instructions:  106000002 cycles:  275053343 heartbeat IPC: 0.21205 cumulative IPC: 0.21318 (Simulation time: 0 hr 13 min 53 sec) 
Heartbeat CPU  2 instructions:  105000002 cycles:  276432374 heartbeat IPC: 0.49109 cumulative IPC: 0.20945 (Simulation time: 0 hr 13 min 56 sec) 
Heartbeat CPU  0 instructions:  103000003 cycles:  277417412 heartbeat IPC: 0.30842 cumulative IPC: 0.21076 (Simulation time: 0 hr 13 min 59 sec) 
Heartbeat CPU  2 instructions:  106000002 cycles:  278294428 heartbeat IPC: 0.53704 cumulative IPC: 0.21187 (Simulation time: 0 hr 14 min 1 sec) 
Heartbeat CPU  1 instructions:  107000000 cycles:  278875535 heartbeat IPC: 0.21637 cumulative IPC: 0.21436 (Simulation time: 0 hr 14 min 3 sec) 
Heartbeat CPU  3 instructions:  107000002 cycles:  279759825 heartbeat IPC: 0.21247 cumulative IPC: 0.21317 (Simulation time: 0 hr 14 min 5 sec) 
Heartbeat CPU  2 instructions:  107000001 cycles:  279797336 heartbeat IPC: 0.66538 cumulative IPC: 0.21456 (Simulation time: 0 hr 14 min 5 sec) 
Heartbeat CPU  0 instructions:  104000000 cycles:  280836370 heartbeat IPC: 0.29249 cumulative IPC: 0.21185 (Simulation time: 0 hr 14 min 8 sec) 
Heartbeat CPU  2 instructions:  108000000 cycles:  281888210 heartbeat IPC: 0.47827 cumulative IPC: 0.21671 (Simulation time: 0 hr 14 min 10 sec) 
Heartbeat CPU  1 instructions:  108000000 cycles:  283461803 heartbeat IPC: 0.21804 cumulative IPC: 0.21442 (Simulation time: 0 hr 14 min 13 sec) 
Heartbeat CPU  3 instructions:  108000000 cycles:  284435859 heartbeat IPC: 0.21386 cumulative IPC: 0.21318 (Simulation time: 0 hr 14 min 15 sec) 
Heartbeat CPU  0 instructions:  105000003 cycles:  285546813 heartbeat IPC: 0.21229 cumulative IPC: 0.21186 (Simulation time: 0 hr 14 min 17 sec) 
Heartbeat CPU  2 instructions:  109000000 cycles:  287643153 heartbeat IPC: 0.17376 cumulative IPC: 0.21577 (Simulation time: 0 hr 14 min 21 sec) 
Heartbeat CPU  1 instructions:  109000000 cycles:  288261167 heartbeat IPC: 0.20836 cumulative IPC: 0.21431 (Simulation time: 0 hr 14 min 22 sec) 
Heartbeat CPU  3 instructions:  109000000 cycles:  289139711 heartbeat IPC: 0.21259 cumulative IPC: 0.21317 (Simulation time: 0 hr 14 min 24 sec) 
Heartbeat CPU  0 instructions:  106000002 cycles:  290202441 heartbeat IPC: 0.21479 cumulative IPC: 0.21191 (Simulation time: 0 hr 14 min 26 sec) 
Heartbeat CPU  0 instructions:  107000002 cycles:  291998092 heartbeat IPC: 0.55690 cumulative IPC: 0.21424 (Simulation time: 0 hr 14 min 30 sec) 
Heartbeat CPU  1 instructions:  110000000 cycles:  292720547 heartbeat IPC: 0.22425 cumulative IPC: 0.21448 (Simulation time: 0 hr 14 min 32 sec) 
Heartbeat CPU  0 instructions:  108000000 cycles:  293299838 heartbeat IPC: 0.76820 cumulative IPC: 0.21694 (Simulation time: 0 hr 14 min 33 sec) 
Heartbeat CPU  2 instructions:  110000002 cycles:  293422335 heartbeat IPC: 0.17304 cumulative IPC: 0.21484 (Simulation time: 0 hr 14 min 34 sec) 
Heartbeat CPU  3 instructions:  110000001 cycles:  293638608 heartbeat IPC: 0.22228 cumulative IPC: 0.21332 (Simulation time: 0 hr 14 min 34 sec) 
Heartbeat CPU  1 instructions:  111000002 cycles:  297285117 heartbeat IPC: 0.21908 cumulative IPC: 0.21455 (Simulation time: 0 hr 14 min 41 sec) 
Heartbeat CPU  0 instructions:  109000003 cycles:  297876950 heartbeat IPC: 0.21848 cumulative IPC: 0.21696 (Simulation time: 0 hr 14 min 42 sec) 
Heartbeat CPU  3 instructions:  111000000 cycles:  298193675 heartbeat IPC: 0.21954 cumulative IPC: 0.21343 (Simulation time: 0 hr 14 min 43 sec) 
Heartbeat CPU  2 instructions:  111000002 cycles:  299264108 heartbeat IPC: 0.17118 cumulative IPC: 0.21391 (Simulation time: 0 hr 14 min 45 sec) 
Heartbeat CPU  1 instructions:  112000000 cycles:  301956027 heartbeat IPC: 0.21409 cumulative IPC: 0.21455 (Simulation time: 0 hr 14 min 50 sec) 
Heartbeat CPU  0 instructions:  110000003 cycles:  302360902 heartbeat IPC: 0.22302 cumulative IPC: 0.21706 (Simulation time: 0 hr 14 min 51 sec) 
Heartbeat CPU  3 instructions:  112000000 cycles:  302823266 heartbeat IPC: 0.21600 cumulative IPC: 0.21347 (Simulation time: 0 hr 14 min 52 sec) 
Heartbeat CPU  2 instructions:  112000000 cycles:  304965568 heartbeat IPC: 0.17539 cumulative IPC: 0.21312 (Simulation time: 0 hr 14 min 56 sec) 
Heartbeat CPU  1 instructions:  113000003 cycles:  306657647 heartbeat IPC: 0.21269 cumulative IPC: 0.21451 (Simulation time: 0 hr 14 min 59 sec) 
Heartbeat CPU  0 instructions:  111000001 cycles:  306921508 heartbeat IPC: 0.21927 cumulative IPC: 0.21710 (Simulation time: 0 hr 14 min 59 sec) 
Heartbeat CPU  3 instructions:  113000000 cycles:  307509806 heartbeat IPC: 0.21338 cumulative IPC: 0.21347 (Simulation time: 0 hr 15 min 1 sec) 
Heartbeat CPU  2 instructions:  113000000 cycles:  310003329 heartbeat IPC: 0.19850 cumulative IPC: 0.21286 (Simulation time: 0 hr 15 min 6 sec) 
Heartbeat CPU  0 instructions:  112000000 cycles:  311378015 heartbeat IPC: 0.22439 cumulative IPC: 0.21721 (Simulation time: 0 hr 15 min 9 sec) 
Heartbeat CPU  1 instructions:  114000001 cycles:  311399845 heartbeat IPC: 0.21087 cumulative IPC: 0.21445 (Simulation time: 0 hr 15 min 9 sec) 
Heartbeat CPU  2 instructions:  114000001 cycles:  311876719 heartbeat IPC: 0.53379 cumulative IPC: 0.21497 (Simulation time: 0 hr 15 min 10 sec) 
Heartbeat CPU  3 instructions:  114000002 cycles:  312043089 heartbeat IPC: 0.22059 cumulative IPC: 0.21358 (Simulation time: 0 hr 15 min 10 sec) 
Heartbeat CPU  2 instructions:  115000003 cycles:  313701163 heartbeat IPC: 0.54811 cumulative IPC: 0.21708 (Simulation time: 0 hr 15 min 14 sec) 
Heartbeat CPU  2 instructions:  116000000 cycles:  315510333 heartbeat IPC: 0.55274 cumulative IPC: 0.21918 (Simulation time: 0 hr 15 min 19 sec) 
Heartbeat CPU  0 instructions:  113000000 cycles:  316010072 heartbeat IPC: 0.21589 cumulative IPC: 0.21719 (Simulation time: 0 hr 15 min 20 sec) 
Heartbeat CPU  1 instructions:  115000002 cycles:  316056252 heartbeat IPC: 0.21476 cumulative IPC: 0.21446 (Simulation time: 0 hr 15 min 20 sec) 
Heartbeat CPU  3 instructions:  115000003 cycles:  316597442 heartbeat IPC: 0.21957 cumulative IPC: 0.21367 (Simulation time: 0 hr 15 min 21 sec) 
Heartbeat CPU  2 instructions:  117000003 cycles:  317243388 heartbeat IPC: 0.57702 cumulative IPC: 0.22130 (Simulation time: 0 hr 15 min 23 sec) 
Heartbeat CPU  2 instructions:  118000002 cycles:  318351852 heartbeat IPC: 0.90215 cumulative IPC: 0.22389 (Simulation time: 0 hr 15 min 26 sec) 
Heartbeat CPU  2 instructions:  119000001 cycles:  319331556 heartbeat IPC: 1.02072 cumulative IPC: 0.22655 (Simulation time: 0 hr 15 min 29 sec) 
Heartbeat CPU  2 instructions:  120000000 cycles:  320456504 heartbeat IPC: 0.88893 cumulative IPC: 0.22908 (Simulation time: 0 hr 15 min 32 sec) 
Heartbeat CPU  0 instructions:  114000000 cycles:  320662128 heartbeat IPC: 0.21496 cumulative IPC: 0.21715 (Simulation time: 0 hr 15 min 33 sec) 
Heartbeat CPU  1 instructions:  116000000 cycles:  320704217 heartbeat IPC: 0.21515 cumulative IPC: 0.21447 (Simulation time: 0 hr 15 min 33 sec) 
Heartbeat CPU  3 instructions:  116000000 cycles:  321099396 heartbeat IPC: 0.22213 cumulative IPC: 0.21380 (Simulation time: 0 hr 15 min 34 sec) 
Heartbeat CPU  2 instructions:  121000002 cycles:  321528042 heartbeat IPC: 0.93324 cumulative IPC: 0.23163 (Simulation time: 0 hr 15 min 35 sec) 
Heartbeat CPU  2 instructions:  122000000 cycles:  324847283 heartbeat IPC: 0.30127 cumulative IPC: 0.23240 (Simulation time: 0 hr 15 min 42 sec) 
Heartbeat CPU  1 instructions:  117000003 cycles:  324954301 heartbeat IPC: 0.23529 cumulative IPC: 0.21477 (Simulation time: 0 hr 15 min 43 sec) 
Heartbeat CPU  0 instructions:  115000002 cycles:  325310796 heartbeat IPC: 0.21512 cumulative IPC: 0.21712 (Simulation time: 0 hr 15 min 44 sec) 
Heartbeat CPU  1 instructions:  118000000 cycles:  325523013 heartbeat IPC: 1.75835 cumulative IPC: 0.21770 (Simulation time: 0 hr 15 min 45 sec) 
Heartbeat CPU  3 instructions:  117000003 cycles:  325651305 heartbeat IPC: 0.21969 cumulative IPC: 0.21389 (Simulation time: 0 hr 15 min 45 sec) 
Heartbeat CPU  1 instructions:  119000002 cycles:  326053317 heartbeat IPC: 1.88571 cumulative IPC: 0.22064 (Simulation time: 0 hr 15 min 47 sec) 
Heartbeat CPU  1 instructions:  120000000 cycles:  327718486 heartbeat IPC: 0.60054 cumulative IPC: 0.22274 (Simulation time: 0 hr 15 min 51 sec) 
Heartbeat CPU  3 instructions:  118000003 cycles:  328093315 heartbeat IPC: 0.40950 cumulative IPC: 0.21547 (Simulation time: 0 hr 15 min 52 sec) 
Heartbeat CPU  3 instructions:  119000002 cycles:  328645822 heartbeat IPC: 1.80993 cumulative IPC: 0.21838 (Simulation time: 0 hr 15 min 54 sec) 
Heartbeat CPU  3 instructions:  120000000 cycles:  329195010 heartbeat IPC: 1.82087 cumulative IPC: 0.22128 (Simulation time: 0 hr 15 min 57 sec) 
Heartbeat CPU  1 instructions:  121000001 cycles:  329471687 heartbeat IPC: 0.57039 cumulative IPC: 0.22475 (Simulation time: 0 hr 15 min 58 sec) 
Heartbeat CPU  3 instructions:  121000000 cycles:  329793435 heartbeat IPC: 1.67105 cumulative IPC: 0.22414 (Simulation time: 0 hr 16 min 0 sec) 
Heartbeat CPU  0 instructions:  116000000 cycles:  330019698 heartbeat IPC: 0.21236 cumulative IPC: 0.21705 (Simulation time: 0 hr 16 min 1 sec) 
Heartbeat CPU  2 instructions:  123000003 cycles:  330790971 heartbeat IPC: 0.16825 cumulative IPC: 0.23115 (Simulation time: 0 hr 16 min 3 sec) 
Heartbeat CPU  3 instructions:  122000002 cycles:  331851730 heartbeat IPC: 0.48584 cumulative IPC: 0.22590 (Simulation time: 0 hr 16 min 5 sec) 
Heartbeat CPU  1 instructions:  122000002 cycles:  332719387 heartbeat IPC: 0.30791 cumulative IPC: 0.22563 (Simulation time: 0 hr 16 min 6 sec) 
Heartbeat CPU  0 instructions:  117000001 cycles:  334624979 heartbeat IPC: 0.21714 cumulative IPC: 0.21705 (Simulation time: 0 hr 16 min 10 sec) 
Heartbeat CPU  2 instructions:  124000000 cycles:  336551699 heartbeat IPC: 0.17359 cumulative IPC: 0.23008 (Simulation time: 0 hr 16 min 13 sec) 
Heartbeat CPU  3 instructions:  123000002 cycles:  336769746 heartbeat IPC: 0.20333 cumulative IPC: 0.22554 (Simulation time: 0 hr 16 min 14 sec) 
Heartbeat CPU  0 instructions:  118000002 cycles:  339318026 heartbeat IPC: 0.21308 cumulative IPC: 0.21699 (Simulation time: 0 hr 16 min 18 sec) 
Heartbeat CPU  1 instructions:  123000000 cycles:  339341977 heartbeat IPC: 0.15100 cumulative IPC: 0.22405 (Simulation time: 0 hr 16 min 18 sec) 
Heartbeat CPU  2 instructions:  125000003 cycles:  340083486 heartbeat IPC: 0.28314 cumulative IPC: 0.23068 (Simulation time: 0 hr 16 min 20 sec) 
Heartbeat CPU  3 instructions:  124000000 cycles:  341436797 heartbeat IPC: 0.21427 cumulative IPC: 0.22538 (Simulation time: 0 hr 16 min 23 sec) 
Heartbeat CPU  2 instructions:  126000000 cycles:  342036462 heartbeat IPC: 0.51204 cumulative IPC: 0.23242 (Simulation time: 0 hr 16 min 24 sec) 
Heartbeat CPU  2 instructions:  127000001 cycles:  343966776 heartbeat IPC: 0.51805 cumulative IPC: 0.23415 (Simulation time: 0 hr 16 min 29 sec) 
Heartbeat CPU  0 instructions:  119000000 cycles:  343992506 heartbeat IPC: 0.21393 cumulative IPC: 0.21695 (Simulation time: 0 hr 16 min 29 sec) 
Heartbeat CPU  3 instructions:  125000000 cycles:  346240106 heartbeat IPC: 0.20819 cumulative IPC: 0.22512 (Simulation time: 0 hr 16 min 33 sec) 
Heartbeat CPU  2 instructions:  128000000 cycles:  346748517 heartbeat IPC: 0.35949 cumulative IPC: 0.23524 (Simulation time: 0 hr 16 min 34 sec) 
Heartbeat CPU  1 instructions:  124000000 cycles:  347948379 heartbeat IPC: 0.11619 cumulative IPC: 0.22117 (Simulation time: 0 hr 16 min 36 sec) 
Heartbeat CPU  0 instructions:  120000000 cycles:  348695473 heartbeat IPC: 0.21263 cumulative IPC: 0.21688 (Simulation time: 0 hr 16 min 38 sec) 
Heartbeat CPU  3 instructions:  126000000 cycles:  350947297 heartbeat IPC: 0.21244 cumulative IPC: 0.22494 (Simulation time: 0 hr 16 min 42 sec) 
Heartbeat CPU  2 instructions:  129000000 cycles:  352306399 heartbeat IPC: 0.17992 cumulative IPC: 0.23430 (Simulation time: 0 hr 16 min 44 sec) 
Heartbeat CPU  0 instructions:  121000001 cycles:  353392405 heartbeat IPC: 0.21291 cumulative IPC: 0.21683 (Simulation time: 0 hr 16 min 46 sec) 
Heartbeat CPU  1 instructions:  125000001 cycles:  354361138 heartbeat IPC: 0.15594 cumulative IPC: 0.21989 (Simulation time: 0 hr 16 min 48 sec) 
Heartbeat CPU  3 instructions:  127000001 cycles:  355685257 heartbeat IPC: 0.21106 cumulative IPC: 0.22474 (Simulation time: 0 hr 16 min 51 sec) 
Heartbeat CPU  2 instructions:  130000003 cycles:  357793418 heartbeat IPC: 0.18225 cumulative IPC: 0.23344 (Simulation time: 0 hr 16 min 55 sec) 
Heartbeat CPU  0 instructions:  122000000 cycles:  358063151 heartbeat IPC: 0.21410 cumulative IPC: 0.21679 (Simulation time: 0 hr 16 min 55 sec) 
Heartbeat CPU  1 instructions:  126000002 cycles:  358909244 heartbeat IPC: 0.21987 cumulative IPC: 0.21989 (Simulation time: 0 hr 16 min 57 sec) 
Heartbeat CPU  3 instructions:  128000000 cycles:  360532159 heartbeat IPC: 0.20632 cumulative IPC: 0.22447 (Simulation time: 0 hr 17 min 0 sec) 
Heartbeat CPU  0 instructions:  123000002 cycles:  362747489 heartbeat IPC: 0.21348 cumulative IPC: 0.21674 (Simulation time: 0 hr 17 min 4 sec) 
Heartbeat CPU  2 instructions:  131000003 cycles:  363301326 heartbeat IPC: 0.18156 cumulative IPC: 0.23259 (Simulation time: 0 hr 17 min 5 sec) 
Heartbeat CPU  1 instructions:  127000001 cycles:  363435937 heartbeat IPC: 0.22091 cumulative IPC: 0.21991 (Simulation time: 0 hr 17 min 6 sec) 
Heartbeat CPU  3 instructions:  129000002 cycles:  366909996 heartbeat IPC: 0.15679 cumulative IPC: 0.22320 (Simulation time: 0 hr 17 min 12 sec) 
Heartbeat CPU  0 instructions:  124000000 cycles:  367567288 heartbeat IPC: 0.20748 cumulative IPC: 0.21661 (Simulation time: 0 hr 17 min 13 sec) 
Heartbeat CPU  1 instructions:  128000000 cycles:  368000771 heartbeat IPC: 0.21907 cumulative IPC: 0.21990 (Simulation time: 0 hr 17 min 14 sec) 
Heartbeat CPU  2 instructions:  132000000 cycles:  368829778 heartbeat IPC: 0.18088 cumulative IPC: 0.23176 (Simulation time: 0 hr 17 min 15 sec) 
Heartbeat CPU  0 instructions:  125000001 cycles:  372277687 heartbeat IPC: 0.21230 cumulative IPC: 0.21655 (Simulation time: 0 hr 17 min 21 sec) 
Heartbeat CPU  1 instructions:  129000000 cycles:  372952836 heartbeat IPC: 0.20194 cumulative IPC: 0.21964 (Simulation time: 0 hr 17 min 22 sec) 
Heartbeat CPU  2 instructions:  133000001 cycles:  374273458 heartbeat IPC: 0.18370 cumulative IPC: 0.23100 (Simulation time: 0 hr 17 min 25 sec) 
Heartbeat CPU  3 instructions:  130000000 cycles:  375427451 heartbeat IPC: 0.11741 cumulative IPC: 0.22063 (Simulation time: 0 hr 17 min 27 sec) 
Heartbeat CPU  0 instructions:  126000002 cycles:  376883303 heartbeat IPC: 0.21713 cumulative IPC: 0.21656 (Simulation time: 0 hr 17 min 29 sec) 
Heartbeat CPU  1 instructions:  130000000 cycles:  377776638 heartbeat IPC: 0.20731 cumulative IPC: 0.21947 (Simulation time: 0 hr 17 min 31 sec) 
Heartbeat CPU  2 instructions:  134000000 cycles:  379755184 heartbeat IPC: 0.18242 cumulative IPC: 0.23025 (Simulation time: 0 hr 17 min 34 sec) 
Heartbeat CPU  0 instructions:  127000003 cycles:  381484673 heartbeat IPC: 0.21733 cumulative IPC: 0.21657 (Simulation time: 0 hr 17 min 38 sec) 
[...]
IIIA222IA2222222222I2444A222A22222I222222444A2222A22222I22222244
IIIA222IA2I22222222I2444A222A22222I222222444A2222A22222I22222244
IIIA222IA2I22222222I2444A222A2I222I222222444A2222A22222I22222244
IIIA222IA2I22222222I2444A222A2I2I2I222222444A2222A22222I22222244
IIIA222IA2II2222222I2444A222A2I2I2I222222444A2222A22222I22222244
[MLOP] Prefetch Degree Mean: 12.64915
[MLOP] Prefetch Degree SD: 4.46051
[MLOP] Max Score Left Mean (%): 51.19638
[MLOP] Max Score Left SD (%): 22.54225
[MLOP] Max Score Right Mean (%): 84.55131
[MLOP] Max Score Right SD (%): 13.31602

[MLOP] History of tracked zone:
IIIIIIIIIIIIIIIIIIIIIIIIIIIIIIIIIIIIIIIIIIIIIIIIIIIIIIIIIIIIIIII
IIIIIIIIIIIIIIIIIIIIIIIAIIIIIIIIIIIIIIIIIIIIIIIIIIIIIIIIIIIIIIII
IIIIIIIIIIIIIIIIIIIIIIIA2IIIIIIIIIIIIIIIIIIIIIIIIIIIIIIIIIIIIIII
IIIIIIIIIIIIIIIIIIIIIIIAIIIIIIIIIIIIIIIIIIIIIIIIIIIIIIIIIIIIIIII
IIIIIIIIIIIIIIIIIIIIIIIA244I444444444444IIIIIIIIIIIIIIIIIIIIIIII
IIIIIIIIIIIIIIIIIIIIIIIAI44I444444444444IIIIIIIIIIIIIIIIIIIIIIII
IIIIIIIIIIIIIIIIIIIIIIIA224I444444444444II44IIIIIIIIIIIIIIIIIIII
IIIIIIIIIIIIIIIIIIIIIIII224I444444444444II44IIIIIIIIIIIIIIIIIIII
IIIIIIIIIIIIIIIIIIIIIIII2I4I444444444444II44IIIIIIIIIIIIIIIIIIII
IIIIIIIIIIIIIIIIIIIIIIIA2444444444444444II44IIIIIIIIIIIIIIIIIIII
IIIIIIIIIIIIIIIIIIIIIIII2444444444444444II44IIIIIIIIIIIIIIIIIIII
IIIIIIIIIIIIIIIIIIIIIIIA2444444444444444II44IIIIIIIIIIIIIIIIIIII
IIIIIIIIIIIIIIIIIIIIIIII2444444444444444II44IIIIIIIIIIIIIIIIIIII
IIIIIIIIIIIIIIIIIIIIIIIA24444444444444444444IIIIIIIIIIIIIIIIIIII
IIIIIIIIIIIIIIIIIIIIIIIA22242222244444444444IIIIIIIIIIIIIIIIIIII
IIIIIIIIIIIIIIIIIIIIIIII22242222244444444444IIIIIIIIIIIIIIIIIIII
IIIIIIIIIIIIIIIIIIIIIIII222422I2244444444444IIIIIIIIIIIIIIIIIIII
IIIIIIIIIIIIIIIIIIIIIIII222422II244444444444IIIIIIIIIIIIIIIIIIII
IIIIIIIIIIIIIIIIIIIIIIII2I2422II244444444444IIIIIIIIIIIIIIIIIIII
IIIIIIIIIIIIIIIIIIIIIIII2II422II244444444444IIIIIIIIIIIIIIIIIIII
IIIIIIIIIIIIIIIIIIIIIIII2II42III244444444444IIIIIIIIIIIIIIIIIIII
IIIIIIIIIIIIIIIIIIIIIIIA2I4424II244444444444IIIIIIIIIIIIIIIIIIII
IIIIIIIIIIIIIIIIIIIIIIIA2224222I224444444444IIIIIIIIIIIIIIIIIIII
IIIIIIIIIIIIIIIIIIIIIIIA2224222I2I4444444444IIIIIIIIIIIIIIIIIIII
IIIIIIIIIIIIIIIIIIIIIIIA22I4222I2I4444444444IIIIIIIIIIIIIIIIIIII
IIIIIIIIIIIIIIIIIIIIIIIA22I42I2I2I4444444444IIIIIIIIIIIIIIIIIIII
IIIIIIIIIIIIIIIIIIIIIIIA2II42I2I2I4444444444IIIIIIIIIIIIIIIIIIII
IIIIIIIIIIIIIIIIIIIIIIIA22I42424244444444444IIIIIIIIIIIIIIIIIIII
IIIIIIIIIIIIIIIIIIIIIIII22I42424244444444444IIIIIIIIIIIIIIIIIIII
IIIIIIIIIIIIIIIIIIIIIIII2II42424244444444444IIIIIIIIIIIIIIIIIIII
IIIIIIIIIIIIIIIIIIIIIIIA22242424244444444444IIIIIIIIIIIIIIIIIIII
IIIIIIIIIIIIIIIIIIIIIIII22242424244444444444IIIIIIIIIIIIIIIIIIII
IIIIIIIIIIIIIIIIIIIIIIII2I242424244444444444IIIIIIIIIIIIIIIIIIII
IIIIIIIIIIIIIIIIIIIIIIII2II42424244444444444IIIIIIIIIIIIIIIIIIII
IIIIIIIIIIIIIIIIIIIIIIIA24I42424244444444444IIIIIIIIIIIIIIIIIIII
IIIIIIIIIIIIIIIIIIIIIIII24I42424244444444444IIIIIIIIIIIIIIIIIIII
IIIIIIIIIIIIIIIIIIIIIIIA24242424244444444444IIIIIIIIIIIIIIIIIIII
IIIIIIIIIIIIIIIIIIIIIIII24242424244444444444IIIIIIIIIIIIIIIIIIII
IIIIIIIIIIIIIIIIIIIIIIII24I42424244444444444IIIIIIIIIIIIIIIIIIII
IIIIIIIIIIIIIIIIIIIIIIIA22242222222244444444IIIIIIIIIIIIIIIIIIII
IIIIIIIIIIIIIIIIIIIIIIIA2224222222I244444444IIIIIIIIIIIIIIIIIIII
IIIIIIIIIIIIIIIIIIIIIIIA2I24222222I244444444IIIIIIIIIIIIIIIIIIII
IIIIIIIIIIIIIIIIIIIIIIIA2I242I2222I244444444IIIIIIIIIIIIIIIIIIII
IIIIIIIIIIIIIIIIIIIIIIIA2I24242222I244444444IIIIIIIIIIIIIIIIIIII
IIIIIIIIIIIIIIIIIIIIIIII2I24242222I244444444IIIIIIIIIIIIIIIIIIII
IIIIIIIIIIIIIIIIIIIIIIII2II4242222I244444444IIIIIIIIIIIIIIIIIIII
IIIIIIIIIIIIIIIIIIIIIIIA24I42422224244444444IIIIIIIIIIIIIIIIIIII
IIIIIIIIIIIIIIIIIIIIIIIA22242222222224444444IIIIIIIIIIIIIIIIIIII
IIIIIIIIIIIIIIIIIIIIIIIA22242I22222224444444IIIIIIIIIIIIIIIIIIII
IIIIIIIIIIIIIIIIIIIIIIIA22I42I22222224444444IIIIIIIIIIIIIIIIIIII
IIIIIIIIIIIIIIIIIIIIIIIA22I42422222224444444IIIIIIIIIIIIIIIIIIII
IIIIIIIIIIIIIIIIIIIIIIII22I42422222224444444IIIIIIIIIIIIIIIIIIII
IIIIIIIIIIIIIIIIIIIIIIIA22242222222224444444IIIIIIIIIIIIIIIIIIII
IIIIIIIIIIIIIIIIIIIIIIII22242222222224444444IIIIIIIIIIIIIIIIIIII
IIIIIIIIIIIIIIIIIIIIIIIA22242222222224444444IIIIIIIIIIIIIIIIIIII
IIIIIIIIIIIIIIIIIIIIIIIAA2242222222224444444IIIIIIIIIIIIIIIIIIII
IIIIIIIIIIIIIIIIIIIIIIIIA2242222222224444444IIIIIIIIIIIIIIIIIIII
IIIIIIIIIIIIIIIIIIIIIIIAA2242222222224444444IIIIIIIIIIIIIIIIIIII
IIIIIIIIIIIIIIIIIIIIIIIIA2242222222224444444IIIIIIIIIIIIIIIIIIII
IIIIIIIIIIIIIIIIIIIIIIIAA2242222222224444444IIIIIIIIIIIIIIIIIIII
IIIIIIIIIIIIIIIIIIIIIIIAA2222222222224444444IIIIIIIIIIIIIIIIIIII
IIIIIIIIIIIIIIIIIIIIIIIAA22I2222222224444444IIIIIIIIIIIIIIIIIIII
IIIIIIIIIIIIIIIIIIIIIIIAA2242222222224444444IIIIIIIIIIIIIIIIIIII
IIIIIIIIIIIIIIIIIIIIIIIIA2242222222224444444IIIIIIIIIIIIIIIIIIII
IIIIIIIIIIIIIIIIIIIIIIIAA2242222222224444444IIIIIIIIIIIIIIIIIIII
IIIIIIIIIIIIIIIIIIIIIIIIA2242222222224444444IIIIIIIIIIIIIIIIIIII
IIIIIIIIIIIIIIIIIIIIIIIAA2242222222224444444IIIIIIIIIIIIIIIIIIII
IIIIIIIIIIIIIIIIIIIIIIIIA2242222222224444444IIIIIIIIIIIIIIIIIIII
IIIIIIIIIIIIIIIIIIIIIIIAA2242222222224444444IIIIIIIIIIIIIIIIIIII
IIIIIIIIIIIIIIIIIIIIIIIIA2242222222224444444IIIIIIIIIIIIIIIIIIII
IIIIIIIIIIIIIIIIIIIIIIIAA2242222222224444444I4IIIIIIIIIIIIIIIIII
IIIIIIIIIIIIIIIIIIIIIIIIA2242222222224444444I4IIIIIIIIIIIIIIIIII
IIIIIIIIIIIIIIIIIIIIIIIAA2242222222224444444I4IIIIIIIIIIIIIIIIII
IIIIIIIIIIIIIIIIIIIIIIIIA2242222222224444444I4IIIIIIIIIIIIIIIIII
IIIIIIIIIIIIIIIIIIIIIIIAA2242222222224444444I4IIIIIIIIIIIIIIIIII
IIIIIIIIIIIIIIIIIIIIIIIIA2242222222224444444I4IIIIIIIIIIIIIIIIII
IIIIIIIIIIIIIIIIIIIIIIIAA2242222222224444444I4IIIIIIIIIIIIIIIIII
IIIIIIIIIIIIIIIIIIIIIIIAA2222222222224444444I4IIIIIIIIIIIIIIIIII
IIIIIIIIIIIIIIIIIIIIIIIIA2222222222224444444I4IIIIIIIIIIIIIIIIII
IIIIIIIIIIIIIIIIIIIIIIIII2222222222224444444I4IIIIIIIIIIIIIIIIII
IIIIIIIIIIIIIIIIIIIIIIIA22222222222224444444I4IIIIIIIIIIIIIIIIII
IIIIIIIIIIIIIIIIIIIIIIII22222222222224444444I4IIIIIIIIIIIIIIIIII
IIIIIIIIIIIIIIIIIIIIIIIA22222222222224444444I4IIIIIIIIIIIIIIIIII
IIIIIIIIIIIIIIIIIIIIIIII22222222222224444444I4IIIIIIIIIIIIIIIIII
IIIIIIIIIIIIIIIIIIIIIIIA22222222222224444444I4IIIIIIIIIIIIIIIIII
IIIIIIIIIIIIIIIIIIIIIIII22222222222224444444I4IIIIIIIIIIIIIIIIII
IIIIIIIIIIIIIIIIIIIIIIIA22222222222224444444I4IIIIIIIIIIIIIIIIII
IIIIIIIIIIIIIIIIIIIIIIII22222222222224444444I4IIIIIIIIIIIIIIIIII
IIIIIIIIIIIIIIIIIIIIIIIA22222222222224444444I4IIIIIIIIIIIIIIIIII
IIIIIIIIIIIIIIIIIIIIIIII22222222222224444444I4IIIIIIIIIIIIIIIIII
IIIIIIIIIIIIIIIIIIIIIIII22222222222224444444I4IIIIIIIIIA2II444II
IIIIIIIIIIIIIIIIIIIIIIII22222222222224444444I4IIIIIIIIAA2I4444I4
IIIIIIIIIIIIIIIIIIIIIIIA22222222222224444444I4IIIIIIIIAA2I4444I4
IIIIIIIIIIIIIIIIIIIIIIIAA2222222222224444444I4IIIIIIIIAA2I4444I4
IIIIIIIIIIIIIIIIIIIIIIIAA222222222222444444444IIIIIIIIAA2I4444I4
IIIIII4444444444I444422AA222222222222444444444IIIIIIIIAA2I4444I4
IIIIII44444444444444422AA222222222222444444444IIIIIIIIAA2I4444I4
IIIIII44444444444422222AA222222222222444444444IIIIIIIIAA2I4444I4
IIIIII44444444444422222IA222222222222444444444IIIIIIIIAA2I4444I4
IIIIII44444444444422222AA222222222222444444444IIIIIIIIAA2I4444I4
IIIIII44444444444422222IA222222222222444444444IIIIIIIIAA2I4444I4
IIIIII44444444444422222AA222222222222444444444IIIIIIIIAA2I4444I4
IIIIII44444444444422222IA222222222222444444444IIIIIIIIAA2I4444I4
IIIIII44444444444422222AA222222222222244444444IIIIIIIIAA2I4444I4
IIIIII44444444444422222IA222222222222244444444IIIIIIIIAA2I4444I4
IIIIII44444444444422222AA222222222222244444444IIIIIIIIAA2I4444I4
IIIIII44444444444422222IA222222222222244444444IIIIIIIIAA2I4444I4
IIIIII44444444444422222AA222222222222244444444IIIIIIIIAA2I4444I4
IIIIII44444444444422222IA222222222222244444444IIIIIIIIAA2I4444I4
IIIIII44444444444422222AA222222222222244444444IIIIIIIIAA2I4444I4
IIIIII44444444444422222IA222222222222244444444IIIIIIIIAA2I4444I4
IIIIII44444444444422222AA222222222222244444444IIIIIIIIAA2I4444I4
IIIIII44444444444422222IA222222222222244444444IIIIIIIIAA2I4444I4
IIIIII44444444444422222AA222222222222244444444IIIIIIIIAA2I4444I4
IIIIII44444444444422222IA222222222222244444444IIIIIIIIAA2I4444I4
IIIIII44444444444422222AA222222222222244444444IIIIIIIIAA2I4444I4
IIIIII44444444444422222IA222222222222244444444IIIIIIIIAA2I4444I4
IIIIII44444444444422222AA222222222222244444444IIIIIIIIAA2I4444I4
IIIIII44444444444422222IA222222222222244444444IIIIIIIIAA2I4444I4
IIIIII44444444444422222AA222222222222244444444IIIIIIIIAA2I4444I4
IIIIII44444444444422222IA222222222222244444444IIIIIIIIAA2I4444I4
IIIIII44444444444422222AA222222222222244444444IIIIIIIIAA2I4444I4
IIIIII44444444444422222IA222222222222244444444IIIIIIIIAA2I4444I4
IIIIII44444444444422222AA222222222222244444444IIIIIIIIAA2I4444I4
IIIIII44444444444422222AA222222222222224444444IIIIIIIIAA2I4444I4
IIIIII44444444444422222AA2222222222222I4444444IIIIIIIIAA2I4444I4
IIIIII44444444444422222AA222222222222244444444IIIIIIIIAA2I4444I4
IIIIII44444444444422222IA222222222222244444444IIIIIIIIAA2I4444I4
IIIIII44444444444422222AA222222222222244444444IIIIIIIIAA2I4444I4
IIIIII44444444444422222AA222222222222224444444IIIIIIIIAA2I4444I4
IIIIII44444444444422222IA222222222222224444444IIIIIIIIAA2I4444I4
IIIIII44444444444422222AA222222222222224444444IIIIIIIIAA2I4444I4
IIIIII44444444444422222IA222222222222224444444IIIIIIIIAA2I4444I4
IIIIII44444444444422222AA222222222222224444444IIIIIIIIAA2I4444I4
IIIIII44444444444422222IA222222222222224444444IIIIIIIIAA2I4444I4
IIIIII44444444444422222AA222222222222224444444IIIIIIIIAA2I4444I4
IIIIII44444444444422222IA222222222222224444444IIIIIIIIAA2I4444I4
IIIIII44444444444422222AA222222222222224444444IIIIIIIIAA2I4444I4
IIIIII44444444444422222IA222222222222224444444IIIIIIIIAA2I4444I4
IIIIII44444444444422222AA222222222222224444444IIIIIIIIAA2I4444I4
IIIIII44444444444422222IA222222222222224444444IIIIIIIIAA2I4444I4
IIIIII44444444444422222AA222222222222224444444IIIIIIIIAA2I4444I4
IIIIII44444444444422222IA222222222222224444444IIIIIIIIAA2I4444I4
IIIIII44444444444422222AA222222222222224444444IIIIIIIIAA2I4444I4
IIIIII44444444444422222AA2222222222222244444444IIIIIIIAA2I4444I4
IIIIII44444444444422222IA2222222222222244444444IIIIIIIAA2I4444I4
IIIIII44444444444422222AA2222222222222244444444IIIIIIIAA2I4444I4
IIIIII44444444444422222IA2222222222222244444444IIIIIIIAA2I4444I4
IIIIII44444444444422222AA2222222222222244444444IIIIIIIAA2I4444I4
IIIIII44444444444422222IA2222222222222244444444IIIIIIIAA2I4444I4
IIIIII44444444444422222AA2222222222222244444444IIIIIIIAA2I4444I4
IIIIII44444444444422222IA2222222222222244444444IIIIIIIAA2I4444I4
IIIIII44444444444422222AA2222222222222244444444IIIIIIIAA2I4444I4
IIIIII44444444444422222IA2222222222222244444444IIIIIIIAA2I4444I4
IIIIII44444444444422222AA2222222222222244444444IIIIIIIAA2I4444I4
IIIIII44444444444422222IA2222222222222244444444IIIIIIIAA2I4444I4
IIIIII44444444444422222AA2222222222222244444444IIIIIIIAA2I4444I4
IIIIII44444444444422222IA2222222222222244444444IIIIIIIAA2I4444I4
IIIIII44444444444422222AA2222222222222244444444IIIIIIIAA2I4444I4
IIIIII44444444444422222IA2222222222222244444444IIIIIIIAA2I4444I4
IIIIII44444444444422222AA2222222222222244444444IIIIIIIAA2I4444I4
IIIIII44444444444422222IA2222222222222244444444IIIIIIIAA2I4444I4
IIIIII44444444444422222AA2222222222222244444444IIIIIIIAA2I4444I4
IIIIII44444444444422222IA2222222222222244444444IIIIIIIAA2I4444I4
IIIIII44444444444422222AA2222222222222244444444IIIIIIIAA2I4444I4
IIIIII44444444444422222IA2222222222222244444444IIIIIIIAA2I4444I4
IIIIII44444444444422222AA2222222222222244444444IIIIIIIAA2I4444I4
IIIIII44444444444422222IA2222222222222244444444IIIIIIIAA2I4444I4
IIIIII44444444444422222AA2222222222222244444444IIIIIIIAA2I4444I4
IIIIII44444444444422222IA2222222222222244444444IIIIIIIAA2I4444I4
IIIIII44444444444422222AA2222222222222244444444IIIIIIIAA2I4444I4
IIIIII44444444444422222IA2222222222222244444444IIIIIIIAA2I4444I4
IIIIII44444444444422222AA2222222222222244444444IIIIIIIAA2I4444I4
IIIIII44444444444422222IA2222222222222244444444IIIIIIIAA2I4444I4
IIIIII44444444444422222AA2222222222222244444444IIIIIIIAA2I4444I4
IIIIII44444444444422222IA2222222222222244444444IIIIIIIAA2I4444I4
IIIIII44444444444422222AA2222222222222244444444IIIIIIIAA2I4444I4
IIIIII44444444444422222IA2222222222222244444444IIIIIIIAA2I4444I4
IIIIII44444444444422222AA2222222222222244444444IIIIIIIAA2I4444I4
IIIIII44444444444422222IA2222222222222244444444IIIIIIIAA2I4444I4
IIIIII44444444444422222AA2222222222222244444444IIIIIIIAA2I4444I4
IIIIII44444444444422222IA2222222222222244444444IIIIIIIAA2I4444I4
IIIIII44444444444422222AA2222222222222244444444IIIIIIIAA2I4444I4
IIIIII44444444444422222IA2222222222222244444444IIIIIIIAA2I4444I4
IIIIII44444444444422222AA2222222222222244444444IIIIIIIAA2I4444I4
IIIIII44444444444422222IA2222222222222244444444IIIIIIIAA2I4444I4
IIIIII44444444444422222AA2222222222222244444444IIIIIIIAA2I4444I4
IIIIII44444444444422222IA2222222222222244444444IIIIIIIAA2I4444I4
IIIIII44444444444422222AA2222222222222244444444IIIIIIIAA2I4444I4
IIIIII44444444444422222IA2222222222222244444444IIIIIIIAA2I4444I4
IIIIII44444444444422222AA2222222222222244444444IIIIIIIAA2I4444I4
IIIIII44444444444422222IA2222222222222244444444IIIIIIIAA2I4444I4
IIIIII44444444444422222AA2222222222222244444444IIIIIIIAA2I4444I4
IIIIII44444444444422222IA2222222222222244444444IIIIIIIAA2I4444I4
IIIIII44444444444422222AA2222222222222244444444IIIIIIIAA2I4444I4
IIIIII44444444444422222IA2222222222222244444444IIIIIIIAA2I4444I4
IIIIII44444444444422222AA2222222222222244444444IIIIIIIAA2I4444I4
IIIIII44444444444422222IA2222222222222244444444IIIIIIIAA2I4444I4
IIIIII44444444444422222AA2222222222222244444444IIIIIIIAA2I4444I4
IIIIII44444444444422222IA2222222222222244444444IIIIIIIAA2I4444I4
IIIIII44444444444422222AA2222222222222244444444IIIIIIIAA2I4444I4
IIIIII44444444444422222IA2222222222222244444444IIIIIIIAA2I4444I4
IIIIII44444444444422222AA2222222222222244444444IIIIIIIAA2I4444I4
IIIIII44444444444422222IA2222222222222244444444IIIIIIIAA2I4444I4
IIIIII44444444444422222AA2222222222222244444444IIIIIIIAA2I4444I4
IIIIII44444444444422222IA2222222222222244444444IIIIIIIAA2I4444I4
IIIIII44444444444422222AA2222222222222244444444IIIIIIIAA2I4444I4
IIIIII44444444444422222IA2222222222222244444444IIIIIIIAA2I4444I4
IIIIII44444444444422222AA2222222222222244444444IIIIIIIAA2I4444I4
IIIIII44444444444422222IA2222222222222244444444IIIIIIIAA2I4444I4
IIIIII44444444444422222II2222222222222244444444IIIIIIIAA2I4444I4
IIIIII44444444444422222A22222222222222244444444IIIIIIIAA2I4444I4
IIIIII44444444444422222I22222222222222244444444IIIIIIIAA2I4444I4
IIIIII44444444444422222A22222222222222244444444IIIIIIIAA2I4444I4
IIIIII44444444444422222I22222222222222244444444IIIIIIIAA2I4444I4
IIIIII44444444444422222A22222222222222244444444IIIIIIIAA2I4444I4
IIIIII44444444444422222A22222222222222244444444IIIIIIIAA244444I4
IIIIII44444444444422222AA2222222222222244444444IIIIIIIAA244444I4
II4III44444444444422222AA2222222222222244444444IIIIIIIAA244444I4
II444444444444444422222AA2222222222222244444444IIIIIIIAA244444I4
II444444444444444422222IA2222222222222244444444IIIIIIIAA244444I4
II444444444444444422222AA2222222222222244444444IIIIIIIAA244444I4
II444444444444444422222IA2222222222222244444444IIIIIIIAA244444I4
II444444444444444422222AA2222222222222244444444IIIIIIIAA244444I4
II444444444444444422222IA2222222222222244444444IIIIIIIAA244444I4
II444444444444444422222AA2222222222222244444444IIIIIIIAA244444I4
II444444444444444422222IA2222222222222244444444IIIIIIIAA244444I4
II444444444444444422222AA2222222222222244444444IIIIIIIAA244444I4
II444444444444444422222IA2222222222222244444444IIIIIIIAA244444I4
II444444444444444422222AA2222222222222244444444IIIIIIIAA244444I4
II444444444444444422222IA2222222222222244444444IIIIIIIAA244444I4
II444444444444444422222AA2222222222222244444444IIIIIIIAA244444I4
II444444444444444422222IA2222222222222244444444IIIIIIIAA244444I4
II444444444444444422222AA2222222222222244444444IIIIIIIAA244444I4
II444444444444444422222IA2222222222222244444444IIIIIIIAA244444I4
II444444444444444422222AA2222222222222244444444IIIIIIIAA244444I4
II444444444444444422222IA2222222222222244444444IIIIIIIAA244444I4
II444444444444444422222AA2222222222222244444444IIIIIIIAA244444I4
II444444444444444422222IA2222222222222244444444IIIIIIIAA244444I4
II444444444444444422222AA2222222222222244444444IIIIIIIAA244444I4
II444444444444444422222IA2222222222222244444444IIIIIIIAA244444I4
II444444444444444422222AA2222222222222244444444IIIIIIIAA244444I4
II444444444444444422222IA2222222222222244444444IIIIIIIAA244444I4
II444444444444444422222AA2222222222222244444444IIIIIIIAA244444I4
II444444444444444422222IA2222222222222244444444IIIIIIIAA244444I4
II444444444444444422222AA2222222222222244444444IIIIIIIAA244444I4
II444444444444444422222IA2222222222222244444444IIIIIIIAA244444I4
II444444444444444422222AA2222222222222244444444IIIIIIIAA244444I4
II444444444444444422222IA2222222222222244444444IIIIIIIAA244444I4
II444444444444444422222AA2222222222222244444444IIIIIIIAA244444I4
II444444444444444422222IA2222222222222244444444IIIIIIIAA244444I4
II444444444444444422222AA2222222222222244444444IIIIIIIAA244444I4
II444444444444444422222IA2222222222222244444444IIIIIIIAA244444I4
II444444444444444422222AA2222222222222244444444IIIIIIIAA244444I4
II444444444444444422222IA2222222222222244444444IIIIIIIAA244444I4
II444444444444444422222AA2222222222222244444444IIIIIIIAA244444I4
II444444444444444422222IA2222222222222244444444IIIIIIIAA244444I4
II444444444444444422222AA2222222222222244444444IIIIIIIAA244444I4
II444444444444444422222IA2222222222222244444444IIIIIIIAA244444I4
II444444444444444422222AA2222222222222244444444IIIIIIIAA244444I4
II444444444444444422222IA2222222222222244444444IIIIIIIAA244444I4
II444444444444444422222AA2222222222222244444444IIIIIIIAA244444I4
II444444444444444422222IA2222222222222244444444IIIIIIIAA244444I4
II444444444444444422222AA2222222222222244444444IIIIIIIAA244444I4
II444444444444444422222IA2222222222222244444444IIIIIIIAA244444I4
II444444444444444422222AA2222222222222244444444IIIIIIIAA244444I4
II444444444444444422222IA2222222222222244444444IIIIIIIAA244444I4
II444444444444444422222AA2222222222222244444444IIIIIIIAA244444I4
II444444444444444422222IA2222222222222244444444IIIIIIIAA244444I4
II444444444444444422222AA2222222222222244444444IIIIIIIAA244444I4
II444444444444444422222IA2222222222222244444444IIIIIIIAA244444I4
II444444444444444422222AA2222222222222244444444IIIIIIIAA244444I4
II444444444444444422222IA2222222222222244444444IIIIIIIAA244444I4
II444444444444444422222AA2222222222222244444444IIIIIIIAA244444I4
II444444444444444422222IA2222222222222244444444IIIIIIIAA244444I4
II444444444444444422222AA2222222222222244444444IIIIIIIAA244444I4
II444444444444444422222IA2222222222222244444444IIIIIIIAA244444I4
II444444444444444422222AA2222222222222244444444IIIIIIIAA244444I4
II444444444444444422222IA2222222222222244444444IIIIIIIAA244444I4
II444444444444444422222AA2222222222222244444444IIIIIIIAA244444I4
II444444444444444422222IA2222222222222244444444IIIIIIIAA244444I4
II444444444444444422222AA2222222222222244444444IIIIIIIAA244444I4
II444444444444444422222IA2222222222222244444444IIIIIIIAA244444I4
II444444444444444422222AA2222222222222244444444IIIIIIIAA244444I4
II444444444444444422222IA2222222222222244444444IIIIIIIAA244444I4
II444444444444444422222AA2222222222222244444444IIIIIIIAA244444I4
[MLOP] Prefetch Degree Mean: 11.41489
[MLOP] Prefetch Degree SD: 3.41869
[MLOP] Max Score Left Mean (%): 44.04595
[MLOP] Max Score Left SD (%): 16.82600
[MLOP] Max Score Right Mean (%): 80.72065
[MLOP] Max Score Right SD (%): 12.14398

Channel_0_RQ_row_buffer_hit 814189
Channel_0_RQ_row_buffer_miss 1552664
Channel_0_WQ_row_buffer_hit 48819
Channel_0_WQ_row_buffer_miss 416382
Channel_0_WQ_full 0
Channel_0_dbus_congested 1275922

Channel_1_RQ_row_buffer_hit 816432
Channel_1_RQ_row_buffer_miss 1565522
Channel_1_WQ_row_buffer_hit 48657
Channel_1_WQ_row_buffer_miss 415345
Channel_1_WQ_full 0
Channel_1_dbus_congested 1277170

avg_congested_cycle 10

DRAM_bw_pochs 2853040
DRAM_bw_level_0 2535986
DRAM_bw_level_1 199236
DRAM_bw_level_2 66173
DRAM_bw_level_3 51645
