*************************************************
   ChampSim Multicore Out-of-Order Simulator
   Last compiled: Mar 31 2025 20:14:32
*************************************************
parsing config file: /data3/config/dspatch.ini

trace_0 /data3/STREAMING/traces/streaming_phase1_core0.trace.xz
trace_1 /data3/STREAMING/traces/streaming_phase1_core1.trace.xz
trace_2 /data3/STREAMING/traces/streaming_phase1_core2.trace.xz
trace_3 /data3/STREAMING/traces/streaming_phase1_core3.trace.xz
adding L2C_PREFETCHER: DSPatch
adding L2C_PREFETCHER: DSPatch
adding L2C_PREFETCHER: DSPatch
adding L2C_PREFETCHER: DSPatch
Initialize SHIP state
warmup_instructions 50000000
simulation_instructions 150000000
champsim_seed 8850
measure_ipc 0
measure_ipc_epoch 1000
measure_dram_bw 1
measure_dram_bw_epoch 256
measure_cache_acc 1
measure_cache_acc_epoch 1024
l1d_perfect 0
l2c_perfect 0
llc_perfect 0
l1d_semi_perfect 0
l2c_semi_perfect 0
llc_semi_perfect 0
semi_perfect_cache_page_buffer_size 64

num_cpus 4
cpu_freq 4000
dram_io_freq 2400
page_size 4096
block_size 64
max_read_per_cycle 8
max_fill_per_cycle 1
dram_channels 2
log2_dram_channels 1
dram_ranks 1
dram_banks 8
dram_rows 65536
dram_columns 128
dram_row_size 8
dram_size 8192
dram_pages 2097152

fetch_width 6
decode_width 6
exec_width 4
lq_width 2
sq_width 2
retire_width 4
scheduler_size 128
branch_mispredict_penalty 20
rob_size 256
lq_size 72
sq_size 56
num_instr_destinations_sparc 4
num_instr_destinations 2
num_instr_sources 4

itlb_set 16
itlb_way 8
itlb_rq_size 16
itlb_wq_size 16
itlb_pq_size 0
itlb_mshr_size 8
itlb_latency 1

dtlb_set 16
dtlb_way 4
dtlb_rq_size 16
dtlb_wq_size 16
dtlb_pq_size 0
dtlb_mshr_size 8
dtlb_latency 1

stlb_set 128
stlb_way 12
stlb_rq_size 32
stlb_wq_size 32
stlb_pq_size 0
stlb_mshr_size 16
stlb_latency 8

l1i_size 32
l1i_set 64
l1i_way 8
l1i_rq_size 64
l1i_wq_size 64
l1i_pq_size 8
l1i_mshr_size 8
l1i_latency 1

l1d_size 32
l1d_set 64
l1d_way 8
l1d_rq_size 64
l1d_wq_size 64
l1d_pq_size 8
l1d_mshr_size 16
l1d_latency 4

l2c_size 256
l2c_set 512
l2c_way 8
l2c_rq_size 32
l2c_wq_size 32
l2c_pq_size 32
l2c_mshr_size 32
l2c_latency 10

llc_size 8192
llc_set 8192
llc_way 16
llc_rq_size 128
llc_wq_size 128
llc_pq_size 128
llc_mshr_size 256
llc_latency 20

dram_channel_width 8
dram_wq_size 64
dram_rq_size 64
tRP 15
tRCD 15
tCAS 12.5
dram_dbus_turn_around_time 30
dram_write_high_wm 56
dram_write_low_wm 48
min_dram_writes_per_switch 16
dram_mtps 2400
dram_dbus_return_time 13

dspatch_log2_region_size 11
dspatch_num_cachelines_in_region 32
dspatch_pb_size 64
dspatch_num_spt_entries 256
dspatch_compression_granularity 2
dspatch_pred_throttle_bw_thr 3
dspatch_bitmap_selection_policy 3
dspatch_sig_type 1
dspatch_sig_hash_type 2
dspatch_or_count_max 3
dspatch_measure_covP_max 3
dspatch_measure_accP_max 3
dspatch_acc_thr 50
dspatch_cov_thr 50
dspatch_enable_pref_buffer 1
dspatch_pref_buffer_size 256
dspatch_pref_degree 4


Heartbeat CPU  2 instructions:    1000003 cycles:     309362 heartbeat IPC: 3.23247 cumulative IPC: 3.23247 (Simulation time: 0 hr 0 min 4 sec) 
Heartbeat CPU  1 instructions:    1000000 cycles:     578713 heartbeat IPC: 1.72797 cumulative IPC: 1.72797 (Simulation time: 0 hr 0 min 8 sec) 
Heartbeat CPU  3 instructions:    1000000 cycles:     600712 heartbeat IPC: 1.66469 cumulative IPC: 1.66469 (Simulation time: 0 hr 0 min 8 sec) 
Heartbeat CPU  0 instructions:    1000003 cycles:     602050 heartbeat IPC: 1.66100 cumulative IPC: 1.66100 (Simulation time: 0 hr 0 min 8 sec) 
Heartbeat CPU  2 instructions:    2000002 cycles:     625416 heartbeat IPC: 3.16401 cumulative IPC: 3.19787 (Simulation time: 0 hr 0 min 9 sec) 
Heartbeat CPU  2 instructions:    3000001 cycles:     929397 heartbeat IPC: 3.28968 cumulative IPC: 3.22790 (Simulation time: 0 hr 0 min 14 sec) 
Heartbeat CPU  1 instructions:    2000001 cycles:    1060572 heartbeat IPC: 2.07530 cumulative IPC: 1.88578 (Simulation time: 0 hr 0 min 16 sec) 
Heartbeat CPU  3 instructions:    2000000 cycles:    1095463 heartbeat IPC: 2.02122 cumulative IPC: 1.82571 (Simulation time: 0 hr 0 min 16 sec) 
Heartbeat CPU  0 instructions:    2000000 cycles:    1122848 heartbeat IPC: 1.92012 cumulative IPC: 1.78119 (Simulation time: 0 hr 0 min 17 sec) 
Heartbeat CPU  2 instructions:    4000000 cycles:    1230997 heartbeat IPC: 3.31565 cumulative IPC: 3.24940 (Simulation time: 0 hr 0 min 19 sec) 
Heartbeat CPU  2 instructions:    5000000 cycles:    1540015 heartbeat IPC: 3.23606 cumulative IPC: 3.24672 (Simulation time: 0 hr 0 min 24 sec) 
Heartbeat CPU  1 instructions:    3000001 cycles:    1540093 heartbeat IPC: 2.08541 cumulative IPC: 1.94793 (Simulation time: 0 hr 0 min 24 sec) 
Heartbeat CPU  3 instructions:    3000003 cycles:    1615856 heartbeat IPC: 1.92163 cumulative IPC: 1.85660 (Simulation time: 0 hr 0 min 25 sec) 
Heartbeat CPU  0 instructions:    3000003 cycles:    1615906 heartbeat IPC: 2.02817 cumulative IPC: 1.85655 (Simulation time: 0 hr 0 min 25 sec) 
Heartbeat CPU  2 instructions:    6000000 cycles:    1848048 heartbeat IPC: 3.24641 cumulative IPC: 3.24667 (Simulation time: 0 hr 0 min 29 sec) 
Heartbeat CPU  1 instructions:    4000000 cycles:    1987417 heartbeat IPC: 2.23551 cumulative IPC: 2.01266 (Simulation time: 0 hr 0 min 31 sec) 
Heartbeat CPU  0 instructions:    4000000 cycles:    2110501 heartbeat IPC: 2.02185 cumulative IPC: 1.89528 (Simulation time: 0 hr 0 min 33 sec) 
Heartbeat CPU  3 instructions:    4000000 cycles:    2113512 heartbeat IPC: 2.00941 cumulative IPC: 1.89258 (Simulation time: 0 hr 0 min 33 sec) 
Heartbeat CPU  1 instructions:    5000002 cycles:    2443800 heartbeat IPC: 2.19115 cumulative IPC: 2.04599 (Simulation time: 0 hr 0 min 37 sec) 
Heartbeat CPU  3 instructions:    5000000 cycles:    2599302 heartbeat IPC: 2.05850 cumulative IPC: 1.92359 (Simulation time: 0 hr 0 min 39 sec) 
Heartbeat CPU  2 instructions:    7000000 cycles:    2636114 heartbeat IPC: 1.26893 cumulative IPC: 2.65542 (Simulation time: 0 hr 0 min 40 sec) 
Heartbeat CPU  0 instructions:    5000002 cycles:    2669664 heartbeat IPC: 1.78839 cumulative IPC: 1.87290 (Simulation time: 0 hr 0 min 41 sec) 
Heartbeat CPU  1 instructions:    6000001 cycles:    2911679 heartbeat IPC: 2.13730 cumulative IPC: 2.06067 (Simulation time: 0 hr 0 min 44 sec) 
Heartbeat CPU  3 instructions:    6000000 cycles:    2974366 heartbeat IPC: 2.66621 cumulative IPC: 2.01724 (Simulation time: 0 hr 0 min 45 sec) 
Heartbeat CPU  0 instructions:    6000001 cycles:    3201538 heartbeat IPC: 1.88014 cumulative IPC: 1.87410 (Simulation time: 0 hr 0 min 48 sec) 
Heartbeat CPU  2 instructions:    8000000 cycles:    3294299 heartbeat IPC: 1.51933 cumulative IPC: 2.42844 (Simulation time: 0 hr 0 min 49 sec) 
Heartbeat CPU  1 instructions:    7000001 cycles:    3520221 heartbeat IPC: 1.64327 cumulative IPC: 1.98851 (Simulation time: 0 hr 0 min 52 sec) 
Heartbeat CPU  3 instructions:    7000000 cycles:    3545250 heartbeat IPC: 1.75167 cumulative IPC: 1.97447 (Simulation time: 0 hr 0 min 52 sec) 
Heartbeat CPU  0 instructions:    7000001 cycles:    3795729 heartbeat IPC: 1.68296 cumulative IPC: 1.84418 (Simulation time: 0 hr 0 min 55 sec) 
Heartbeat CPU  2 instructions:    9000002 cycles:    3921646 heartbeat IPC: 1.59402 cumulative IPC: 2.29496 (Simulation time: 0 hr 0 min 57 sec) 
Heartbeat CPU  3 instructions:    8000000 cycles:    4043009 heartbeat IPC: 2.00900 cumulative IPC: 1.97872 (Simulation time: 0 hr 0 min 59 sec) 
Heartbeat CPU  1 instructions:    8000000 cycles:    4068805 heartbeat IPC: 1.82287 cumulative IPC: 1.96618 (Simulation time: 0 hr 0 min 59 sec) 
Heartbeat CPU  0 instructions:    8000000 cycles:    4332158 heartbeat IPC: 1.86418 cumulative IPC: 1.84665 (Simulation time: 0 hr 1 min 3 sec) 
Heartbeat CPU  2 instructions:   10000000 cycles:    4532201 heartbeat IPC: 1.63785 cumulative IPC: 2.20643 (Simulation time: 0 hr 1 min 6 sec) 
Heartbeat CPU  3 instructions:    9000000 cycles:    4570445 heartbeat IPC: 1.89596 cumulative IPC: 1.96917 (Simulation time: 0 hr 1 min 6 sec) 
Heartbeat CPU  1 instructions:    9000002 cycles:    4600717 heartbeat IPC: 1.88001 cumulative IPC: 1.95622 (Simulation time: 0 hr 1 min 7 sec) 
Heartbeat CPU  0 instructions:    9000000 cycles:    4847065 heartbeat IPC: 1.94210 cumulative IPC: 1.85679 (Simulation time: 0 hr 1 min 10 sec) 
Heartbeat CPU  2 instructions:   11000002 cycles:    5040769 heartbeat IPC: 1.96631 cumulative IPC: 2.18221 (Simulation time: 0 hr 1 min 13 sec) 
Heartbeat CPU  3 instructions:   10000000 cycles:    5122381 heartbeat IPC: 1.81180 cumulative IPC: 1.95222 (Simulation time: 0 hr 1 min 14 sec) 
Heartbeat CPU  1 instructions:   10000001 cycles:    5176979 heartbeat IPC: 1.73532 cumulative IPC: 1.93163 (Simulation time: 0 hr 1 min 15 sec) 
Heartbeat CPU  2 instructions:   12000000 cycles:    5350284 heartbeat IPC: 3.23085 cumulative IPC: 2.24287 (Simulation time: 0 hr 1 min 18 sec) 
Heartbeat CPU  0 instructions:   10000003 cycles:    5382453 heartbeat IPC: 1.86781 cumulative IPC: 1.85789 (Simulation time: 0 hr 1 min 18 sec) 
Heartbeat CPU  3 instructions:   11000000 cycles:    5650279 heartbeat IPC: 1.89431 cumulative IPC: 1.94681 (Simulation time: 0 hr 1 min 22 sec) 
Heartbeat CPU  2 instructions:   13000001 cycles:    5655419 heartbeat IPC: 3.27724 cumulative IPC: 2.29868 (Simulation time: 0 hr 1 min 22 sec) 
Heartbeat CPU  1 instructions:   11000001 cycles:    5709265 heartbeat IPC: 1.87869 cumulative IPC: 1.92669 (Simulation time: 0 hr 1 min 23 sec) 
Heartbeat CPU  0 instructions:   11000002 cycles:    5921676 heartbeat IPC: 1.85452 cumulative IPC: 1.85758 (Simulation time: 0 hr 1 min 27 sec) 
Heartbeat CPU  2 instructions:   14000000 cycles:    5961019 heartbeat IPC: 3.27225 cumulative IPC: 2.34859 (Simulation time: 0 hr 1 min 27 sec) 
Heartbeat CPU  3 instructions:   12000000 cycles:    6137560 heartbeat IPC: 2.05220 cumulative IPC: 1.95517 (Simulation time: 0 hr 1 min 30 sec) 
Heartbeat CPU  1 instructions:   12000000 cycles:    6178790 heartbeat IPC: 2.12981 cumulative IPC: 1.94213 (Simulation time: 0 hr 1 min 31 sec) 
Heartbeat CPU  2 instructions:   15000003 cycles:    6266060 heartbeat IPC: 3.27826 cumulative IPC: 2.39385 (Simulation time: 0 hr 1 min 33 sec) 
Heartbeat CPU  0 instructions:   12000000 cycles:    6417529 heartbeat IPC: 2.01672 cumulative IPC: 1.86988 (Simulation time: 0 hr 1 min 35 sec) 
Heartbeat CPU  2 instructions:   16000000 cycles:    6566218 heartbeat IPC: 3.33157 cumulative IPC: 2.43671 (Simulation time: 0 hr 1 min 37 sec) 
Heartbeat CPU  3 instructions:   13000000 cycles:    6621962 heartbeat IPC: 2.06440 cumulative IPC: 1.96316 (Simulation time: 0 hr 1 min 38 sec) 
Heartbeat CPU  1 instructions:   13000002 cycles:    6657147 heartbeat IPC: 2.09049 cumulative IPC: 1.95279 (Simulation time: 0 hr 1 min 39 sec) 
Heartbeat CPU  2 instructions:   17000000 cycles:    6864413 heartbeat IPC: 3.35351 cumulative IPC: 2.47654 (Simulation time: 0 hr 1 min 43 sec) 
Heartbeat CPU  0 instructions:   13000001 cycles:    6911755 heartbeat IPC: 2.02337 cumulative IPC: 1.88085 (Simulation time: 0 hr 1 min 44 sec) 
Heartbeat CPU  3 instructions:   14000000 cycles:    7085108 heartbeat IPC: 2.15915 cumulative IPC: 1.97598 (Simulation time: 0 hr 1 min 47 sec) 
Heartbeat CPU  1 instructions:   14000000 cycles:    7107863 heartbeat IPC: 2.21869 cumulative IPC: 1.96965 (Simulation time: 0 hr 1 min 47 sec) 
Heartbeat CPU  2 instructions:   18000000 cycles:    7160317 heartbeat IPC: 3.37947 cumulative IPC: 2.51386 (Simulation time: 0 hr 1 min 48 sec) 
Heartbeat CPU  0 instructions:   14000002 cycles:    7386739 heartbeat IPC: 2.10534 cumulative IPC: 1.89529 (Simulation time: 0 hr 1 min 52 sec) 
Heartbeat CPU  2 instructions:   19000001 cycles:    7457193 heartbeat IPC: 3.36841 cumulative IPC: 2.54788 (Simulation time: 0 hr 1 min 53 sec) 
Heartbeat CPU  1 instructions:   15000001 cycles:    7576992 heartbeat IPC: 2.13161 cumulative IPC: 1.97968 (Simulation time: 0 hr 1 min 55 sec) 
Heartbeat CPU  3 instructions:   15000000 cycles:    7599293 heartbeat IPC: 1.94483 cumulative IPC: 1.97387 (Simulation time: 0 hr 1 min 56 sec) 
Heartbeat CPU  2 instructions:   20000000 cycles:    7754106 heartbeat IPC: 3.36799 cumulative IPC: 2.57928 (Simulation time: 0 hr 1 min 58 sec) 
Heartbeat CPU  0 instructions:   15000002 cycles:    7862996 heartbeat IPC: 2.09971 cumulative IPC: 1.90767 (Simulation time: 0 hr 2 min 0 sec) 
Heartbeat CPU  1 instructions:   16000000 cycles:    8051027 heartbeat IPC: 2.10955 cumulative IPC: 1.98732 (Simulation time: 0 hr 2 min 4 sec) 
Heartbeat CPU  2 instructions:   21000002 cycles:    8051240 heartbeat IPC: 3.36549 cumulative IPC: 2.60829 (Simulation time: 0 hr 2 min 4 sec) 
Heartbeat CPU  3 instructions:   16000000 cycles:    8079338 heartbeat IPC: 2.08314 cumulative IPC: 1.98036 (Simulation time: 0 hr 2 min 4 sec) 
Heartbeat CPU  0 instructions:   16000000 cycles:    8327790 heartbeat IPC: 2.15149 cumulative IPC: 1.92128 (Simulation time: 0 hr 2 min 8 sec) 
Heartbeat CPU  2 instructions:   22000000 cycles:    8366465 heartbeat IPC: 3.17233 cumulative IPC: 2.62955 (Simulation time: 0 hr 2 min 9 sec) 
Heartbeat CPU  1 instructions:   17000002 cycles:    8532296 heartbeat IPC: 2.07784 cumulative IPC: 1.99243 (Simulation time: 0 hr 2 min 12 sec) 
Heartbeat CPU  3 instructions:   17000000 cycles:    8556520 heartbeat IPC: 2.09564 cumulative IPC: 1.98679 (Simulation time: 0 hr 2 min 12 sec) 
Heartbeat CPU  2 instructions:   23000000 cycles:    8663725 heartbeat IPC: 3.36406 cumulative IPC: 2.65475 (Simulation time: 0 hr 2 min 14 sec) 
Heartbeat CPU  0 instructions:   17000000 cycles:    8819984 heartbeat IPC: 2.03172 cumulative IPC: 1.92744 (Simulation time: 0 hr 2 min 17 sec) 
Heartbeat CPU  2 instructions:   24000000 cycles:    8965169 heartbeat IPC: 3.31737 cumulative IPC: 2.67703 (Simulation time: 0 hr 2 min 19 sec) 
Heartbeat CPU  1 instructions:   18000000 cycles:    9049377 heartbeat IPC: 1.93393 cumulative IPC: 1.98909 (Simulation time: 0 hr 2 min 21 sec) 
Heartbeat CPU  3 instructions:   18000000 cycles:    9063688 heartbeat IPC: 1.97173 cumulative IPC: 1.98595 (Simulation time: 0 hr 2 min 21 sec) 
Heartbeat CPU  0 instructions:   18000002 cycles:    9269419 heartbeat IPC: 2.22502 cumulative IPC: 1.94187 (Simulation time: 0 hr 2 min 24 sec) 
Heartbeat CPU  2 instructions:   25000000 cycles:    9284324 heartbeat IPC: 3.13327 cumulative IPC: 2.69271 (Simulation time: 0 hr 2 min 25 sec) 
Heartbeat CPU  1 instructions:   19000000 cycles:    9556868 heartbeat IPC: 1.97048 cumulative IPC: 1.98810 (Simulation time: 0 hr 2 min 29 sec) 
Heartbeat CPU  3 instructions:   19000003 cycles:    9572020 heartbeat IPC: 1.96722 cumulative IPC: 1.98495 (Simulation time: 0 hr 2 min 30 sec) 
Heartbeat CPU  2 instructions:   26000001 cycles:    9578089 heartbeat IPC: 3.40408 cumulative IPC: 2.71453 (Simulation time: 0 hr 2 min 30 sec) 
Heartbeat CPU  0 instructions:   19000001 cycles:    9707499 heartbeat IPC: 2.28269 cumulative IPC: 1.95725 (Simulation time: 0 hr 2 min 32 sec) 
Heartbeat CPU  2 instructions:   27000003 cycles:    9874167 heartbeat IPC: 3.37750 cumulative IPC: 2.73441 (Simulation time: 0 hr 2 min 35 sec) 
Heartbeat CPU  1 instructions:   20000000 cycles:   10039078 heartbeat IPC: 2.07379 cumulative IPC: 1.99221 (Simulation time: 0 hr 2 min 37 sec) 
Heartbeat CPU  3 instructions:   20000000 cycles:   10074545 heartbeat IPC: 1.98994 cumulative IPC: 1.98520 (Simulation time: 0 hr 2 min 38 sec) 
Heartbeat CPU  2 instructions:   28000000 cycles:   10172409 heartbeat IPC: 3.35297 cumulative IPC: 2.75254 (Simulation time: 0 hr 2 min 40 sec) 
Heartbeat CPU  0 instructions:   20000000 cycles:   10219273 heartbeat IPC: 1.95399 cumulative IPC: 1.95709 (Simulation time: 0 hr 2 min 40 sec) 
Heartbeat CPU  2 instructions:   29000003 cycles:   10469286 heartbeat IPC: 3.36841 cumulative IPC: 2.77001 (Simulation time: 0 hr 2 min 45 sec) 
Heartbeat CPU  1 instructions:   21000001 cycles:   10535897 heartbeat IPC: 2.01281 cumulative IPC: 1.99319 (Simulation time: 0 hr 2 min 46 sec) 
Heartbeat CPU  3 instructions:   21000001 cycles:   10558052 heartbeat IPC: 2.06822 cumulative IPC: 1.98900 (Simulation time: 0 hr 2 min 46 sec) 
Heartbeat CPU  0 instructions:   21000001 cycles:   10711681 heartbeat IPC: 2.03084 cumulative IPC: 1.96048 (Simulation time: 0 hr 2 min 49 sec) 
Heartbeat CPU  2 instructions:   30000000 cycles:   10762615 heartbeat IPC: 3.40913 cumulative IPC: 2.78743 (Simulation time: 0 hr 2 min 50 sec) 
Heartbeat CPU  1 instructions:   22000000 cycles:   11010185 heartbeat IPC: 2.10842 cumulative IPC: 1.99815 (Simulation time: 0 hr 2 min 54 sec) 
Heartbeat CPU  3 instructions:   22000002 cycles:   11047869 heartbeat IPC: 2.04158 cumulative IPC: 1.99133 (Simulation time: 0 hr 2 min 55 sec) 
Heartbeat CPU  2 instructions:   31000001 cycles:   11059046 heartbeat IPC: 3.37347 cumulative IPC: 2.80314 (Simulation time: 0 hr 2 min 55 sec) 
Heartbeat CPU  0 instructions:   22000000 cycles:   11193782 heartbeat IPC: 2.07425 cumulative IPC: 1.96538 (Simulation time: 0 hr 2 min 57 sec) 
Heartbeat CPU  2 instructions:   32000000 cycles:   11356493 heartbeat IPC: 3.36194 cumulative IPC: 2.81777 (Simulation time: 0 hr 3 min 0 sec) 
Heartbeat CPU  1 instructions:   23000002 cycles:   11473862 heartbeat IPC: 2.15668 cumulative IPC: 2.00456 (Simulation time: 0 hr 3 min 2 sec) 
Heartbeat CPU  3 instructions:   23000002 cycles:   11541590 heartbeat IPC: 2.02544 cumulative IPC: 1.99279 (Simulation time: 0 hr 3 min 3 sec) 
Heartbeat CPU  0 instructions:   23000000 cycles:   11651808 heartbeat IPC: 2.18328 cumulative IPC: 1.97394 (Simulation time: 0 hr 3 min 5 sec) 
Heartbeat CPU  2 instructions:   33000001 cycles:   11653774 heartbeat IPC: 3.36382 cumulative IPC: 2.83170 (Simulation time: 0 hr 3 min 6 sec) 
Heartbeat CPU  1 instructions:   24000000 cycles:   11953000 heartbeat IPC: 2.08708 cumulative IPC: 2.00786 (Simulation time: 0 hr 3 min 11 sec) 
Heartbeat CPU  2 instructions:   34000002 cycles:   11955517 heartbeat IPC: 3.31408 cumulative IPC: 2.84388 (Simulation time: 0 hr 3 min 11 sec) 
Heartbeat CPU  3 instructions:   24000000 cycles:   11996425 heartbeat IPC: 2.19860 cumulative IPC: 2.00060 (Simulation time: 0 hr 3 min 12 sec) 
Heartbeat CPU  0 instructions:   24000000 cycles:   12110272 heartbeat IPC: 2.18120 cumulative IPC: 1.98179 (Simulation time: 0 hr 3 min 14 sec) 
Heartbeat CPU  2 instructions:   35000002 cycles:   12249464 heartbeat IPC: 3.40197 cumulative IPC: 2.85727 (Simulation time: 0 hr 3 min 16 sec) 
Heartbeat CPU  1 instructions:   25000000 cycles:   12426682 heartbeat IPC: 2.11112 cumulative IPC: 2.01180 (Simulation time: 0 hr 3 min 19 sec) 
Heartbeat CPU  3 instructions:   25000000 cycles:   12458560 heartbeat IPC: 2.16387 cumulative IPC: 2.00665 (Simulation time: 0 hr 3 min 20 sec) 
Heartbeat CPU  2 instructions:   36000000 cycles:   12551860 heartbeat IPC: 3.30692 cumulative IPC: 2.86810 (Simulation time: 0 hr 3 min 22 sec) 
Heartbeat CPU  0 instructions:   25000003 cycles:   12581792 heartbeat IPC: 2.12081 cumulative IPC: 1.98700 (Simulation time: 0 hr 3 min 22 sec) 
Heartbeat CPU  1 instructions:   26000000 cycles:   12905117 heartbeat IPC: 2.09015 cumulative IPC: 2.01470 (Simulation time: 0 hr 3 min 27 sec) 
Heartbeat CPU  3 instructions:   26000003 cycles:   12945643 heartbeat IPC: 2.05304 cumulative IPC: 2.00840 (Simulation time: 0 hr 3 min 28 sec) 
Heartbeat CPU  2 instructions:   37000001 cycles:   13054874 heartbeat IPC: 1.98802 cumulative IPC: 2.83419 (Simulation time: 0 hr 3 min 30 sec) 
Heartbeat CPU  0 instructions:   26000000 cycles:   13062434 heartbeat IPC: 2.08054 cumulative IPC: 1.99044 (Simulation time: 0 hr 3 min 30 sec) 
Heartbeat CPU  1 instructions:   27000001 cycles:   13373931 heartbeat IPC: 2.13304 cumulative IPC: 2.01885 (Simulation time: 0 hr 3 min 34 sec) 
Heartbeat CPU  3 instructions:   27000001 cycles:   13446058 heartbeat IPC: 1.99834 cumulative IPC: 2.00802 (Simulation time: 0 hr 3 min 35 sec) 
Heartbeat CPU  0 instructions:   27000003 cycles:   13557736 heartbeat IPC: 2.01898 cumulative IPC: 1.99148 (Simulation time: 0 hr 3 min 37 sec) 
Heartbeat CPU  2 instructions:   38000003 cycles:   13646279 heartbeat IPC: 1.69089 cumulative IPC: 2.78464 (Simulation time: 0 hr 3 min 38 sec) 
Heartbeat CPU  1 instructions:   28000000 cycles:   13861695 heartbeat IPC: 2.05017 cumulative IPC: 2.01995 (Simulation time: 0 hr 3 min 42 sec) 
Heartbeat CPU  3 instructions:   28000000 cycles:   13939941 heartbeat IPC: 2.02477 cumulative IPC: 2.00862 (Simulation time: 0 hr 3 min 43 sec) 
Heartbeat CPU  0 instructions:   28000000 cycles:   14039140 heartbeat IPC: 2.07725 cumulative IPC: 1.99442 (Simulation time: 0 hr 3 min 45 sec) 
Heartbeat CPU  2 instructions:   39000002 cycles:   14174585 heartbeat IPC: 1.89284 cumulative IPC: 2.75140 (Simulation time: 0 hr 3 min 47 sec) 
Heartbeat CPU  1 instructions:   29000000 cycles:   14351468 heartbeat IPC: 2.04176 cumulative IPC: 2.02070 (Simulation time: 0 hr 3 min 49 sec) 
Heartbeat CPU  3 instructions:   29000000 cycles:   14440862 heartbeat IPC: 1.99632 cumulative IPC: 2.00819 (Simulation time: 0 hr 3 min 51 sec) 
Heartbeat CPU  0 instructions:   29000001 cycles:   14505866 heartbeat IPC: 2.14259 cumulative IPC: 1.99919 (Simulation time: 0 hr 3 min 52 sec) 
Heartbeat CPU  2 instructions:   40000000 cycles:   14696627 heartbeat IPC: 1.91555 cumulative IPC: 2.72171 (Simulation time: 0 hr 3 min 55 sec) 
Heartbeat CPU  1 instructions:   30000001 cycles:   14843483 heartbeat IPC: 2.03246 cumulative IPC: 2.02109 (Simulation time: 0 hr 3 min 57 sec) 
Heartbeat CPU  3 instructions:   30000001 cycles:   14908116 heartbeat IPC: 2.14017 cumulative IPC: 2.01233 (Simulation time: 0 hr 3 min 58 sec) 
Heartbeat CPU  0 instructions:   30000001 cycles:   14991991 heartbeat IPC: 2.05708 cumulative IPC: 2.00107 (Simulation time: 0 hr 4 min 0 sec) 
Heartbeat CPU  2 instructions:   41000000 cycles:   15281630 heartbeat IPC: 1.70939 cumulative IPC: 2.68296 (Simulation time: 0 hr 4 min 4 sec) 
Heartbeat CPU  1 instructions:   31000002 cycles:   15304466 heartbeat IPC: 2.16928 cumulative IPC: 2.02555 (Simulation time: 0 hr 4 min 5 sec) 
Heartbeat CPU  3 instructions:   31000001 cycles:   15356697 heartbeat IPC: 2.22925 cumulative IPC: 2.01866 (Simulation time: 0 hr 4 min 6 sec) 
Heartbeat CPU  0 instructions:   31000000 cycles:   15474203 heartbeat IPC: 2.07377 cumulative IPC: 2.00333 (Simulation time: 0 hr 4 min 7 sec) 
Heartbeat CPU  1 instructions:   32000000 cycles:   15788889 heartbeat IPC: 2.06431 cumulative IPC: 2.02674 (Simulation time: 0 hr 4 min 12 sec) 
Heartbeat CPU  3 instructions:   32000000 cycles:   15800765 heartbeat IPC: 2.25191 cumulative IPC: 2.02522 (Simulation time: 0 hr 4 min 12 sec) 
Heartbeat CPU  2 instructions:   42000000 cycles:   15856744 heartbeat IPC: 1.73879 cumulative IPC: 2.64872 (Simulation time: 0 hr 4 min 13 sec) 
Heartbeat CPU  0 instructions:   32000000 cycles:   15949300 heartbeat IPC: 2.10483 cumulative IPC: 2.00636 (Simulation time: 0 hr 4 min 15 sec) 
Heartbeat CPU  3 instructions:   33000003 cycles:   16248936 heartbeat IPC: 2.23130 cumulative IPC: 2.03090 (Simulation time: 0 hr 4 min 19 sec) 
Heartbeat CPU  1 instructions:   33000000 cycles:   16306837 heartbeat IPC: 1.93070 cumulative IPC: 2.02369 (Simulation time: 0 hr 4 min 20 sec) 
Heartbeat CPU  0 instructions:   33000000 cycles:   16430810 heartbeat IPC: 2.07680 cumulative IPC: 2.00842 (Simulation time: 0 hr 4 min 22 sec) 
Heartbeat CPU  2 instructions:   43000001 cycles:   16434808 heartbeat IPC: 1.72991 cumulative IPC: 2.61640 (Simulation time: 0 hr 4 min 22 sec) 
Heartbeat CPU  3 instructions:   34000003 cycles:   16734469 heartbeat IPC: 2.05959 cumulative IPC: 2.03173 (Simulation time: 0 hr 4 min 27 sec) 
Heartbeat CPU  1 instructions:   34000001 cycles:   16773235 heartbeat IPC: 2.14409 cumulative IPC: 2.02704 (Simulation time: 0 hr 4 min 27 sec) 
Heartbeat CPU  0 instructions:   34000003 cycles:   16931379 heartbeat IPC: 1.99773 cumulative IPC: 2.00811 (Simulation time: 0 hr 4 min 30 sec) 
Heartbeat CPU  2 instructions:   44000000 cycles:   17055112 heartbeat IPC: 1.61211 cumulative IPC: 2.57987 (Simulation time: 0 hr 4 min 32 sec) 
Heartbeat CPU  3 instructions:   35000001 cycles:   17210729 heartbeat IPC: 2.09969 cumulative IPC: 2.03362 (Simulation time: 0 hr 4 min 34 sec) 
Heartbeat CPU  1 instructions:   35000000 cycles:   17257417 heartbeat IPC: 2.06534 cumulative IPC: 2.02811 (Simulation time: 0 hr 4 min 35 sec) 
Heartbeat CPU  0 instructions:   35000000 cycles:   17407041 heartbeat IPC: 2.10233 cumulative IPC: 2.01068 (Simulation time: 0 hr 4 min 37 sec) 
Heartbeat CPU  2 instructions:   45000003 cycles:   17637784 heartbeat IPC: 1.71624 cumulative IPC: 2.55134 (Simulation time: 0 hr 4 min 41 sec) 
Heartbeat CPU  3 instructions:   36000000 cycles:   17682176 heartbeat IPC: 2.12113 cumulative IPC: 2.03595 (Simulation time: 0 hr 4 min 42 sec) 
Heartbeat CPU  1 instructions:   36000000 cycles:   17736763 heartbeat IPC: 2.08618 cumulative IPC: 2.02968 (Simulation time: 0 hr 4 min 42 sec) 
Heartbeat CPU  0 instructions:   36000000 cycles:   17868792 heartbeat IPC: 2.16567 cumulative IPC: 2.01469 (Simulation time: 0 hr 4 min 45 sec) 
Heartbeat CPU  3 instructions:   37000001 cycles:   18164277 heartbeat IPC: 2.07426 cumulative IPC: 2.03697 (Simulation time: 0 hr 4 min 49 sec) 
Heartbeat CPU  2 instructions:   46000001 cycles:   18216522 heartbeat IPC: 1.72789 cumulative IPC: 2.52518 (Simulation time: 0 hr 4 min 50 sec) 
Heartbeat CPU  1 instructions:   37000001 cycles:   18223922 heartbeat IPC: 2.05272 cumulative IPC: 2.03030 (Simulation time: 0 hr 4 min 50 sec) 
Heartbeat CPU  0 instructions:   37000003 cycles:   18369011 heartbeat IPC: 1.99913 cumulative IPC: 2.01426 (Simulation time: 0 hr 4 min 52 sec) 
Heartbeat CPU  3 instructions:   38000000 cycles:   18689547 heartbeat IPC: 1.90378 cumulative IPC: 2.03322 (Simulation time: 0 hr 4 min 57 sec) 
Heartbeat CPU  1 instructions:   38000000 cycles:   18756188 heartbeat IPC: 1.87876 cumulative IPC: 2.02600 (Simulation time: 0 hr 4 min 58 sec) 
Heartbeat CPU  2 instructions:   47000001 cycles:   18781389 heartbeat IPC: 1.77033 cumulative IPC: 2.50248 (Simulation time: 0 hr 4 min 58 sec) 
Heartbeat CPU  0 instructions:   38000002 cycles:   18884540 heartbeat IPC: 1.93975 cumulative IPC: 2.01223 (Simulation time: 0 hr 5 min 0 sec) 
Heartbeat CPU  3 instructions:   39000003 cycles:   19228698 heartbeat IPC: 1.85477 cumulative IPC: 2.02822 (Simulation time: 0 hr 5 min 5 sec) 
Heartbeat CPU  1 instructions:   39000003 cycles:   19271073 heartbeat IPC: 1.94219 cumulative IPC: 2.02376 (Simulation time: 0 hr 5 min 5 sec) 
Heartbeat CPU  2 instructions:   48000000 cycles:   19345782 heartbeat IPC: 1.77181 cumulative IPC: 2.48116 (Simulation time: 0 hr 5 min 6 sec) 
Heartbeat CPU  0 instructions:   39000003 cycles:   19407176 heartbeat IPC: 1.91338 cumulative IPC: 2.00957 (Simulation time: 0 hr 5 min 7 sec) 
Heartbeat CPU  1 instructions:   40000000 cycles:   19800669 heartbeat IPC: 1.88823 cumulative IPC: 2.02013 (Simulation time: 0 hr 5 min 12 sec) 
Heartbeat CPU  3 instructions:   40000000 cycles:   19897514 heartbeat IPC: 1.49518 cumulative IPC: 2.01030 (Simulation time: 0 hr 5 min 14 sec) 
Heartbeat CPU  2 instructions:   49000000 cycles:   19921783 heartbeat IPC: 1.73611 cumulative IPC: 2.45962 (Simulation time: 0 hr 5 min 14 sec) 
Heartbeat CPU  0 instructions:   40000000 cycles:   19927248 heartbeat IPC: 1.92280 cumulative IPC: 2.00730 (Simulation time: 0 hr 5 min 14 sec) 
Heartbeat CPU  1 instructions:   41000000 cycles:   20415000 heartbeat IPC: 1.62779 cumulative IPC: 2.00833 (Simulation time: 0 hr 5 min 21 sec) 
Heartbeat CPU  0 instructions:   41000002 cycles:   20448256 heartbeat IPC: 1.91936 cumulative IPC: 2.00506 (Simulation time: 0 hr 5 min 21 sec) 
Heartbeat CPU  2 instructions:   50000003 cycles:   20494519 heartbeat IPC: 1.74601 cumulative IPC: 2.43968 (Simulation time: 0 hr 5 min 22 sec) 
Heartbeat CPU  3 instructions:   41000000 cycles:   20539172 heartbeat IPC: 1.55846 cumulative IPC: 1.99619 (Simulation time: 0 hr 5 min 22 sec) 
Heartbeat CPU  1 instructions:   42000000 cycles:   20939481 heartbeat IPC: 1.90665 cumulative IPC: 2.00578 (Simulation time: 0 hr 5 min 28 sec) 
Heartbeat CPU  0 instructions:   42000001 cycles:   20971845 heartbeat IPC: 1.90989 cumulative IPC: 2.00269 (Simulation time: 0 hr 5 min 28 sec) 
Heartbeat CPU  2 instructions:   51000000 cycles:   21051492 heartbeat IPC: 1.79541 cumulative IPC: 0.04750 (Simulation time: 0 hr 5 min 30 sec) 
Heartbeat CPU  3 instructions:   42000003 cycles:   21144215 heartbeat IPC: 1.65278 cumulative IPC: 1.98636 (Simulation time: 0 hr 5 min 31 sec) 
Heartbeat CPU  1 instructions:   43000000 cycles:   21479514 heartbeat IPC: 1.85174 cumulative IPC: 2.00191 (Simulation time: 0 hr 5 min 35 sec) 
Heartbeat CPU  2 instructions:   52000000 cycles:   21606056 heartbeat IPC: 1.80322 cumulative IPC: 0.09257 (Simulation time: 0 hr 5 min 37 sec) 
Heartbeat CPU  0 instructions:   43000003 cycles:   21624400 heartbeat IPC: 1.53244 cumulative IPC: 1.98849 (Simulation time: 0 hr 5 min 37 sec) 
Heartbeat CPU  3 instructions:   43000002 cycles:   21694506 heartbeat IPC: 1.81722 cumulative IPC: 1.98207 (Simulation time: 0 hr 5 min 38 sec) 
Heartbeat CPU  1 instructions:   44000000 cycles:   22033662 heartbeat IPC: 1.80457 cumulative IPC: 1.99694 (Simulation time: 0 hr 5 min 43 sec) 
Heartbeat CPU  0 instructions:   44000000 cycles:   22145777 heartbeat IPC: 1.91799 cumulative IPC: 1.98683 (Simulation time: 0 hr 5 min 45 sec) 
Heartbeat CPU  2 instructions:   53000001 cycles:   22170639 heartbeat IPC: 1.77122 cumulative IPC: 0.13531 (Simulation time: 0 hr 5 min 45 sec) 
Heartbeat CPU  3 instructions:   44000000 cycles:   22236203 heartbeat IPC: 1.84605 cumulative IPC: 1.97876 (Simulation time: 0 hr 5 min 46 sec) 
Heartbeat CPU  1 instructions:   45000000 cycles:   22588944 heartbeat IPC: 1.80089 cumulative IPC: 1.99213 (Simulation time: 0 hr 5 min 51 sec) 
Heartbeat CPU  2 instructions:   54000000 cycles:   22724103 heartbeat IPC: 1.80680 cumulative IPC: 0.17602 (Simulation time: 0 hr 5 min 52 sec) 
Heartbeat CPU  3 instructions:   45000001 cycles:   22759270 heartbeat IPC: 1.91180 cumulative IPC: 1.97722 (Simulation time: 0 hr 5 min 53 sec) 
Heartbeat CPU  0 instructions:   45000000 cycles:   22822926 heartbeat IPC: 1.47678 cumulative IPC: 1.97170 (Simulation time: 0 hr 5 min 54 sec) 
Heartbeat CPU  1 instructions:   46000002 cycles:   23099349 heartbeat IPC: 1.95923 cumulative IPC: 1.99140 (Simulation time: 0 hr 5 min 58 sec) 
Heartbeat CPU  3 instructions:   46000000 cycles:   23274236 heartbeat IPC: 1.94187 cumulative IPC: 1.97643 (Simulation time: 0 hr 6 min 0 sec) 
Heartbeat CPU  2 instructions:   55000002 cycles:   23296382 heartbeat IPC: 1.74740 cumulative IPC: 0.21463 (Simulation time: 0 hr 6 min 1 sec) 
Heartbeat CPU  0 instructions:   46000000 cycles:   23435710 heartbeat IPC: 1.63190 cumulative IPC: 1.96282 (Simulation time: 0 hr 6 min 3 sec) 
Heartbeat CPU  1 instructions:   47000001 cycles:   23611759 heartbeat IPC: 1.95156 cumulative IPC: 1.99053 (Simulation time: 0 hr 6 min 5 sec) 
Heartbeat CPU  3 instructions:   47000002 cycles:   23819683 heartbeat IPC: 1.83336 cumulative IPC: 1.97316 (Simulation time: 0 hr 6 min 8 sec) 
Heartbeat CPU  2 instructions:   56000000 cycles:   23829709 heartbeat IPC: 1.87502 cumulative IPC: 0.25179 (Simulation time: 0 hr 6 min 8 sec) 
Heartbeat CPU  0 instructions:   47000000 cycles:   23942184 heartbeat IPC: 1.97443 cumulative IPC: 1.96306 (Simulation time: 0 hr 6 min 10 sec) 
Heartbeat CPU  1 instructions:   48000000 cycles:   24116568 heartbeat IPC: 1.98095 cumulative IPC: 1.99033 (Simulation time: 0 hr 6 min 13 sec) 
Heartbeat CPU  2 instructions:   57000001 cycles:   24142167 heartbeat IPC: 3.20043 cumulative IPC: 0.28995 (Simulation time: 0 hr 6 min 13 sec) 
Heartbeat CPU  3 instructions:   48000000 cycles:   24353818 heartbeat IPC: 1.87218 cumulative IPC: 1.97094 (Simulation time: 0 hr 6 min 16 sec) 
Heartbeat CPU  0 instructions:   48000000 cycles:   24466160 heartbeat IPC: 1.90848 cumulative IPC: 1.96189 (Simulation time: 0 hr 6 min 18 sec) 
Heartbeat CPU  2 instructions:   58000001 cycles:   24511188 heartbeat IPC: 2.70987 cumulative IPC: 0.32638 (Simulation time: 0 hr 6 min 19 sec) 
Heartbeat CPU  1 instructions:   49000001 cycles:   24633966 heartbeat IPC: 1.93275 cumulative IPC: 1.98912 (Simulation time: 0 hr 6 min 20 sec) 
Heartbeat CPU  3 instructions:   49000003 cycles:   24892667 heartbeat IPC: 1.85581 cumulative IPC: 1.96845 (Simulation time: 0 hr 6 min 24 sec) 
Heartbeat CPU  0 instructions:   49000002 cycles:   24979369 heartbeat IPC: 1.94853 cumulative IPC: 1.96162 (Simulation time: 0 hr 6 min 25 sec) 
Heartbeat CPU  2 instructions:   59000002 cycles:   25087347 heartbeat IPC: 1.73563 cumulative IPC: 0.35875 (Simulation time: 0 hr 6 min 27 sec) 
Heartbeat CPU  1 instructions:   50000000 cycles:   25171907 heartbeat IPC: 1.85894 cumulative IPC: 1.98634 (Simulation time: 0 hr 6 min 28 sec) 
Heartbeat CPU  3 instructions:   50000000 cycles:   25435773 heartbeat IPC: 1.84126 cumulative IPC: 1.96574 (Simulation time: 0 hr 6 min 32 sec) 
Heartbeat CPU  0 instructions:   50000003 cycles:   25518008 heartbeat IPC: 1.85653 cumulative IPC: 1.95940 (Simulation time: 0 hr 6 min 33 sec) 

Warmup complete CPU  0 instructions:   50000003 cycles:   25518008 (Simulation time: 0 hr 6 min 33 sec) 
Warmup complete CPU  1 instructions:   50611729 cycles:   25518008 (Simulation time: 0 hr 6 min 33 sec) 
Warmup complete CPU  2 instructions:   59786824 cycles:   25518008 (Simulation time: 0 hr 6 min 33 sec) 
Warmup complete CPU  3 instructions:   50171516 cycles:   25518008 (Simulation time: 0 hr 6 min 33 sec) 

Heartbeat CPU  2 instructions:   60000000 cycles:   26774569 heartbeat IPC: 0.59269 cumulative IPC: 0.16965 (Simulation time: 0 hr 6 min 35 sec) 
Heartbeat CPU  1 instructions:   51000000 cycles:   27334633 heartbeat IPC: 0.46238 cumulative IPC: 0.21373 (Simulation time: 0 hr 6 min 37 sec) 
Heartbeat CPU  3 instructions:   51000000 cycles:   29498438 heartbeat IPC: 0.24614 cumulative IPC: 0.20814 (Simulation time: 0 hr 6 min 41 sec) 
Heartbeat CPU  0 instructions:   51000001 cycles:   30316633 heartbeat IPC: 0.20839 cumulative IPC: 0.20839 (Simulation time: 0 hr 6 min 43 sec) 
Heartbeat CPU  1 instructions:   52000000 cycles:   32144585 heartbeat IPC: 0.20790 cumulative IPC: 0.20950 (Simulation time: 0 hr 6 min 46 sec) 
Heartbeat CPU  2 instructions:   61000000 cycles:   32574694 heartbeat IPC: 0.17241 cumulative IPC: 0.17192 (Simulation time: 0 hr 6 min 47 sec) 
Heartbeat CPU  3 instructions:   52000000 cycles:   34365870 heartbeat IPC: 0.20545 cumulative IPC: 0.20666 (Simulation time: 0 hr 6 min 51 sec) 
Heartbeat CPU  0 instructions:   52000000 cycles:   35037974 heartbeat IPC: 0.21180 cumulative IPC: 0.21008 (Simulation time: 0 hr 6 min 52 sec) 
Heartbeat CPU  2 instructions:   62000002 cycles:   35958692 heartbeat IPC: 0.29551 cumulative IPC: 0.21198 (Simulation time: 0 hr 6 min 55 sec) 
Heartbeat CPU  1 instructions:   53000002 cycles:   36883080 heartbeat IPC: 0.21104 cumulative IPC: 0.21014 (Simulation time: 0 hr 6 min 57 sec) 
Heartbeat CPU  2 instructions:   63000003 cycles:   37436652 heartbeat IPC: 0.67661 cumulative IPC: 0.26959 (Simulation time: 0 hr 6 min 59 sec) 
Heartbeat CPU  2 instructions:   64000000 cycles:   38878476 heartbeat IPC: 0.69356 cumulative IPC: 0.31535 (Simulation time: 0 hr 7 min 2 sec) 
Heartbeat CPU  3 instructions:   53000003 cycles:   39169625 heartbeat IPC: 0.20817 cumulative IPC: 0.20719 (Simulation time: 0 hr 7 min 3 sec) 
Heartbeat CPU  0 instructions:   53000001 cycles:   39832939 heartbeat IPC: 0.20855 cumulative IPC: 0.20957 (Simulation time: 0 hr 7 min 5 sec) 
Heartbeat CPU  2 instructions:   65000003 cycles:   40510231 heartbeat IPC: 0.61284 cumulative IPC: 0.34773 (Simulation time: 0 hr 7 min 7 sec) 
Heartbeat CPU  1 instructions:   54000002 cycles:   41625656 heartbeat IPC: 0.21086 cumulative IPC: 0.21035 (Simulation time: 0 hr 7 min 10 sec) 
Heartbeat CPU  2 instructions:   66000001 cycles:   41786922 heartbeat IPC: 0.78327 cumulative IPC: 0.38190 (Simulation time: 0 hr 7 min 10 sec) 
Heartbeat CPU  2 instructions:   67000002 cycles:   42823187 heartbeat IPC: 0.96501 cumulative IPC: 0.41682 (Simulation time: 0 hr 7 min 13 sec) 
Heartbeat CPU  2 instructions:   68000000 cycles:   43882706 heartbeat IPC: 0.94382 cumulative IPC: 0.44723 (Simulation time: 0 hr 7 min 17 sec) 
Heartbeat CPU  3 instructions:   54000000 cycles:   43943994 heartbeat IPC: 0.20945 cumulative IPC: 0.20778 (Simulation time: 0 hr 7 min 17 sec) 
Heartbeat CPU  0 instructions:   54000001 cycles:   44557491 heartbeat IPC: 0.21166 cumulative IPC: 0.21009 (Simulation time: 0 hr 7 min 18 sec) 
Heartbeat CPU  2 instructions:   69000000 cycles:   45222897 heartbeat IPC: 0.74616 cumulative IPC: 0.46756 (Simulation time: 0 hr 7 min 20 sec) 
Heartbeat CPU  1 instructions:   55000002 cycles:   46384533 heartbeat IPC: 0.21013 cumulative IPC: 0.21030 (Simulation time: 0 hr 7 min 23 sec) 
Heartbeat CPU  2 instructions:   70000001 cycles:   46843096 heartbeat IPC: 0.61721 cumulative IPC: 0.47893 (Simulation time: 0 hr 7 min 24 sec) 
Heartbeat CPU  2 instructions:   71000002 cycles:   48676980 heartbeat IPC: 0.54529 cumulative IPC: 0.48418 (Simulation time: 0 hr 7 min 29 sec) 
Heartbeat CPU  3 instructions:   55000001 cycles:   48725429 heartbeat IPC: 0.20914 cumulative IPC: 0.20806 (Simulation time: 0 hr 7 min 29 sec) 
Heartbeat CPU  0 instructions:   55000000 cycles:   49229339 heartbeat IPC: 0.21405 cumulative IPC: 0.21087 (Simulation time: 0 hr 7 min 30 sec) 
Heartbeat CPU  2 instructions:   72000000 cycles:   50492452 heartbeat IPC: 0.55082 cumulative IPC: 0.48903 (Simulation time: 0 hr 7 min 33 sec) 
Heartbeat CPU  1 instructions:   56000000 cycles:   51212063 heartbeat IPC: 0.20714 cumulative IPC: 0.20971 (Simulation time: 0 hr 7 min 35 sec) 
Heartbeat CPU  2 instructions:   73000002 cycles:   52339124 heartbeat IPC: 0.54152 cumulative IPC: 0.49264 (Simulation time: 0 hr 7 min 38 sec) 
Heartbeat CPU  3 instructions:   56000000 cycles:   53421529 heartbeat IPC: 0.21294 cumulative IPC: 0.20888 (Simulation time: 0 hr 7 min 41 sec) 
Heartbeat CPU  2 instructions:   74000000 cycles:   53887525 heartbeat IPC: 0.64583 cumulative IPC: 0.50100 (Simulation time: 0 hr 7 min 42 sec) 
Heartbeat CPU  0 instructions:   56000000 cycles:   54003883 heartbeat IPC: 0.20944 cumulative IPC: 0.21063 (Simulation time: 0 hr 7 min 42 sec) 
Heartbeat CPU  2 instructions:   75000001 cycles:   55778787 heartbeat IPC: 0.52875 cumulative IPC: 0.50274 (Simulation time: 0 hr 7 min 47 sec) 
Heartbeat CPU  1 instructions:   57000001 cycles:   55932889 heartbeat IPC: 0.21183 cumulative IPC: 0.21004 (Simulation time: 0 hr 7 min 47 sec) 
Heartbeat CPU  3 instructions:   57000000 cycles:   57946810 heartbeat IPC: 0.22098 cumulative IPC: 0.21057 (Simulation time: 0 hr 7 min 51 sec) 
Heartbeat CPU  0 instructions:   57000001 cycles:   58720270 heartbeat IPC: 0.21203 cumulative IPC: 0.21083 (Simulation time: 0 hr 7 min 53 sec) 
Heartbeat CPU  1 instructions:   58000001 cycles:   60630821 heartbeat IPC: 0.21286 cumulative IPC: 0.21042 (Simulation time: 0 hr 7 min 56 sec) 
Heartbeat CPU  2 instructions:   76000000 cycles:   61853707 heartbeat IPC: 0.16461 cumulative IPC: 0.44621 (Simulation time: 0 hr 7 min 59 sec) 
Heartbeat CPU  3 instructions:   58000001 cycles:   62622589 heartbeat IPC: 0.21387 cumulative IPC: 0.21098 (Simulation time: 0 hr 8 min 0 sec) 
Heartbeat CPU  0 instructions:   58000003 cycles:   63350241 heartbeat IPC: 0.21598 cumulative IPC: 0.21146 (Simulation time: 0 hr 8 min 2 sec) 
Heartbeat CPU  1 instructions:   59000002 cycles:   65251535 heartbeat IPC: 0.21642 cumulative IPC: 0.21111 (Simulation time: 0 hr 8 min 6 sec) 
Heartbeat CPU  3 instructions:   59000003 cycles:   67406604 heartbeat IPC: 0.20903 cumulative IPC: 0.21076 (Simulation time: 0 hr 8 min 10 sec) 
Heartbeat CPU  2 instructions:   77000001 cycles:   67812919 heartbeat IPC: 0.16781 cumulative IPC: 0.40698 (Simulation time: 0 hr 8 min 11 sec) 
Heartbeat CPU  0 instructions:   59000002 cycles:   68060874 heartbeat IPC: 0.21229 cumulative IPC: 0.21155 (Simulation time: 0 hr 8 min 11 sec) 
Heartbeat CPU  1 instructions:   60000000 cycles:   70086042 heartbeat IPC: 0.20685 cumulative IPC: 0.21065 (Simulation time: 0 hr 8 min 16 sec) 
Heartbeat CPU  3 instructions:   60000000 cycles:   72159336 heartbeat IPC: 0.21040 cumulative IPC: 0.21072 (Simulation time: 0 hr 8 min 20 sec) 
Heartbeat CPU  0 instructions:   60000000 cycles:   72745496 heartbeat IPC: 0.21346 cumulative IPC: 0.21174 (Simulation time: 0 hr 8 min 21 sec) 
Heartbeat CPU  2 instructions:   78000003 cycles:   73674981 heartbeat IPC: 0.17059 cumulative IPC: 0.37820 (Simulation time: 0 hr 8 min 23 sec) 
Heartbeat CPU  1 instructions:   61000003 cycles:   74803959 heartbeat IPC: 0.21196 cumulative IPC: 0.21078 (Simulation time: 0 hr 8 min 25 sec) 
Heartbeat CPU  3 instructions:   61000003 cycles:   76986218 heartbeat IPC: 0.20717 cumulative IPC: 0.21039 (Simulation time: 0 hr 8 min 29 sec) 
Heartbeat CPU  0 instructions:   61000001 cycles:   77538568 heartbeat IPC: 0.20863 cumulative IPC: 0.21145 (Simulation time: 0 hr 8 min 30 sec) 
Heartbeat CPU  1 instructions:   62000002 cycles:   79528080 heartbeat IPC: 0.21168 cumulative IPC: 0.21085 (Simulation time: 0 hr 8 min 34 sec) 
Heartbeat CPU  2 instructions:   79000000 cycles:   79629269 heartbeat IPC: 0.16795 cumulative IPC: 0.35507 (Simulation time: 0 hr 8 min 35 sec) 
Heartbeat CPU  3 instructions:   62000002 cycles:   81720939 heartbeat IPC: 0.21121 cumulative IPC: 0.21046 (Simulation time: 0 hr 8 min 39 sec) 
Heartbeat CPU  0 instructions:   62000001 cycles:   82172573 heartbeat IPC: 0.21580 cumulative IPC: 0.21181 (Simulation time: 0 hr 8 min 40 sec) 
Heartbeat CPU  0 instructions:   63000001 cycles:   83358809 heartbeat IPC: 0.84300 cumulative IPC: 0.22475 (Simulation time: 0 hr 8 min 43 sec) 
Heartbeat CPU  0 instructions:   64000000 cycles:   83961051 heartbeat IPC: 1.66046 cumulative IPC: 0.23955 (Simulation time: 0 hr 8 min 45 sec) 
Heartbeat CPU  1 instructions:   63000003 cycles:   84267208 heartbeat IPC: 0.21101 cumulative IPC: 0.21087 (Simulation time: 0 hr 8 min 46 sec) 
Heartbeat CPU  0 instructions:   65000000 cycles:   84637783 heartbeat IPC: 1.47769 cumulative IPC: 0.25372 (Simulation time: 0 hr 8 min 48 sec) 
Heartbeat CPU  0 instructions:   66000003 cycles:   85301103 heartbeat IPC: 1.50757 cumulative IPC: 0.26763 (Simulation time: 0 hr 8 min 50 sec) 
Heartbeat CPU  2 instructions:   80000000 cycles:   85524191 heartbeat IPC: 0.16964 cumulative IPC: 0.33685 (Simulation time: 0 hr 8 min 51 sec) 
Heartbeat CPU  0 instructions:   67000001 cycles:   85872058 heartbeat IPC: 1.75145 cumulative IPC: 0.28167 (Simulation time: 0 hr 8 min 52 sec) 
Heartbeat CPU  3 instructions:   63000001 cycles:   86441255 heartbeat IPC: 0.21185 cumulative IPC: 0.21057 (Simulation time: 0 hr 8 min 55 sec) 
Heartbeat CPU  0 instructions:   68000000 cycles:   86442969 heartbeat IPC: 1.75158 cumulative IPC: 0.29545 (Simulation time: 0 hr 8 min 55 sec) 
Heartbeat CPU  1 instructions:   64000000 cycles:   88931676 heartbeat IPC: 0.21439 cumulative IPC: 0.21113 (Simulation time: 0 hr 9 min 0 sec) 
Heartbeat CPU  0 instructions:   69000003 cycles:   90533136 heartbeat IPC: 0.24449 cumulative IPC: 0.29224 (Simulation time: 0 hr 9 min 3 sec) 
Heartbeat CPU  3 instructions:   64000000 cycles:   91065608 heartbeat IPC: 0.21625 cumulative IPC: 0.21097 (Simulation time: 0 hr 9 min 4 sec) 
Heartbeat CPU  2 instructions:   81000000 cycles:   91556353 heartbeat IPC: 0.16578 cumulative IPC: 0.32123 (Simulation time: 0 hr 9 min 5 sec) 
Heartbeat CPU  1 instructions:   65000000 cycles:   93595864 heartbeat IPC: 0.21440 cumulative IPC: 0.21135 (Simulation time: 0 hr 9 min 9 sec) 
Heartbeat CPU  0 instructions:   70000001 cycles:   95199472 heartbeat IPC: 0.21430 cumulative IPC: 0.28702 (Simulation time: 0 hr 9 min 12 sec) 
Heartbeat CPU  3 instructions:   65000003 cycles:   95786699 heartbeat IPC: 0.21182 cumulative IPC: 0.21103 (Simulation time: 0 hr 9 min 14 sec) 
Heartbeat CPU  1 instructions:   66000002 cycles:   96468355 heartbeat IPC: 0.34813 cumulative IPC: 0.21689 (Simulation time: 0 hr 9 min 15 sec) 
Heartbeat CPU  1 instructions:   67000003 cycles:   97031754 heartbeat IPC: 1.77494 cumulative IPC: 0.22916 (Simulation time: 0 hr 9 min 18 sec) 
Heartbeat CPU  2 instructions:   82000000 cycles:   97509326 heartbeat IPC: 0.16798 cumulative IPC: 0.30855 (Simulation time: 0 hr 9 min 20 sec) 
Heartbeat CPU  1 instructions:   68000000 cycles:   97597998 heartbeat IPC: 1.76602 cumulative IPC: 0.24124 (Simulation time: 0 hr 9 min 20 sec) 
Heartbeat CPU  1 instructions:   69000003 cycles:   98147231 heartbeat IPC: 1.82073 cumulative IPC: 0.25318 (Simulation time: 0 hr 9 min 22 sec) 
Heartbeat CPU  0 instructions:   71000000 cycles:   99770583 heartbeat IPC: 0.21876 cumulative IPC: 0.28282 (Simulation time: 0 hr 9 min 26 sec) 
Heartbeat CPU  3 instructions:   66000002 cycles:  100336777 heartbeat IPC: 0.21978 cumulative IPC: 0.21156 (Simulation time: 0 hr 9 min 27 sec) 
Heartbeat CPU  1 instructions:   70000000 cycles:  100564840 heartbeat IPC: 0.41363 cumulative IPC: 0.25835 (Simulation time: 0 hr 9 min 28 sec) 
Heartbeat CPU  2 instructions:   83000002 cycles:  103482636 heartbeat IPC: 0.16741 cumulative IPC: 0.29774 (Simulation time: 0 hr 9 min 33 sec) 
Heartbeat CPU  0 instructions:   72000000 cycles:  104337662 heartbeat IPC: 0.21896 cumulative IPC: 0.27912 (Simulation time: 0 hr 9 min 35 sec) 
Heartbeat CPU  3 instructions:   67000003 cycles:  104994768 heartbeat IPC: 0.21469 cumulative IPC: 0.21174 (Simulation time: 0 hr 9 min 36 sec) 
Heartbeat CPU  1 instructions:   71000000 cycles:  105229229 heartbeat IPC: 0.21439 cumulative IPC: 0.25578 (Simulation time: 0 hr 9 min 37 sec) 
Heartbeat CPU  2 instructions:   84000000 cycles:  108129878 heartbeat IPC: 0.21518 cumulative IPC: 0.29310 (Simulation time: 0 hr 9 min 43 sec) 
Heartbeat CPU  0 instructions:   73000001 cycles:  108998034 heartbeat IPC: 0.21458 cumulative IPC: 0.27551 (Simulation time: 0 hr 9 min 45 sec) 
Heartbeat CPU  3 instructions:   68000000 cycles:  109538170 heartbeat IPC: 0.22010 cumulative IPC: 0.21219 (Simulation time: 0 hr 9 min 46 sec) 
Heartbeat CPU  1 instructions:   72000000 cycles:  109843717 heartbeat IPC: 0.21671 cumulative IPC: 0.25364 (Simulation time: 0 hr 9 min 46 sec) 
Heartbeat CPU  0 instructions:   74000003 cycles:  111415372 heartbeat IPC: 0.41368 cumulative IPC: 0.27940 (Simulation time: 0 hr 9 min 50 sec) 
Heartbeat CPU  2 instructions:   85000000 cycles:  112766222 heartbeat IPC: 0.21569 cumulative IPC: 0.28898 (Simulation time: 0 hr 9 min 53 sec) 
Heartbeat CPU  3 instructions:   69000001 cycles:  114257807 heartbeat IPC: 0.21188 cumulative IPC: 0.21218 (Simulation time: 0 hr 9 min 56 sec) 
Heartbeat CPU  1 instructions:   73000002 cycles:  114534840 heartbeat IPC: 0.21317 cumulative IPC: 0.25151 (Simulation time: 0 hr 9 min 57 sec) 
Heartbeat CPU  0 instructions:   75000000 cycles:  114902930 heartbeat IPC: 0.28673 cumulative IPC: 0.27969 (Simulation time: 0 hr 9 min 58 sec) 
Heartbeat CPU  2 instructions:   86000001 cycles:  118602686 heartbeat IPC: 0.17134 cumulative IPC: 0.28161 (Simulation time: 0 hr 10 min 5 sec) 
Heartbeat CPU  3 instructions:   70000000 cycles:  118972458 heartbeat IPC: 0.21210 cumulative IPC: 0.21217 (Simulation time: 0 hr 10 min 6 sec) 
Heartbeat CPU  1 instructions:   74000000 cycles:  119082028 heartbeat IPC: 0.21992 cumulative IPC: 0.24997 (Simulation time: 0 hr 10 min 6 sec) 
Heartbeat CPU  0 instructions:   76000000 cycles:  119725770 heartbeat IPC: 0.20735 cumulative IPC: 0.27599 (Simulation time: 0 hr 10 min 7 sec) 
Heartbeat CPU  3 instructions:   71000000 cycles:  123621537 heartbeat IPC: 0.21510 cumulative IPC: 0.21231 (Simulation time: 0 hr 10 min 15 sec) 
Heartbeat CPU  1 instructions:   75000000 cycles:  123735334 heartbeat IPC: 0.21490 cumulative IPC: 0.24831 (Simulation time: 0 hr 10 min 16 sec) 
Heartbeat CPU  0 instructions:   77000000 cycles:  124469164 heartbeat IPC: 0.21082 cumulative IPC: 0.27286 (Simulation time: 0 hr 10 min 17 sec) 
Heartbeat CPU  2 instructions:   87000002 cycles:  124630205 heartbeat IPC: 0.16591 cumulative IPC: 0.27457 (Simulation time: 0 hr 10 min 17 sec) 
Heartbeat CPU  3 instructions:   72000000 cycles:  128278085 heartbeat IPC: 0.21475 cumulative IPC: 0.21242 (Simulation time: 0 hr 10 min 25 sec) 
Heartbeat CPU  1 instructions:   76000000 cycles:  128382035 heartbeat IPC: 0.21521 cumulative IPC: 0.24681 (Simulation time: 0 hr 10 min 25 sec) 
Heartbeat CPU  0 instructions:   78000002 cycles:  129227395 heartbeat IPC: 0.21016 cumulative IPC: 0.26999 (Simulation time: 0 hr 10 min 27 sec) 
Heartbeat CPU  2 instructions:   88000000 cycles:  129516366 heartbeat IPC: 0.20466 cumulative IPC: 0.27128 (Simulation time: 0 hr 10 min 27 sec) 
Heartbeat CPU  3 instructions:   73000003 cycles:  132997030 heartbeat IPC: 0.21191 cumulative IPC: 0.21240 (Simulation time: 0 hr 10 min 35 sec) 
Heartbeat CPU  1 instructions:   77000001 cycles:  133018531 heartbeat IPC: 0.21568 cumulative IPC: 0.24547 (Simulation time: 0 hr 10 min 35 sec) 
Heartbeat CPU  0 instructions:   79000003 cycles:  133886749 heartbeat IPC: 0.21462 cumulative IPC: 0.26760 (Simulation time: 0 hr 10 min 36 sec) 
Heartbeat CPU  2 instructions:   89000000 cycles:  134897395 heartbeat IPC: 0.18584 cumulative IPC: 0.26708 (Simulation time: 0 hr 10 min 38 sec) 
Heartbeat CPU  3 instructions:   74000000 cycles:  137599510 heartbeat IPC: 0.21727 cumulative IPC: 0.21260 (Simulation time: 0 hr 10 min 44 sec) 
Heartbeat CPU  1 instructions:   78000000 cycles:  137909177 heartbeat IPC: 0.20447 cumulative IPC: 0.24369 (Simulation time: 0 hr 10 min 44 sec) 
Heartbeat CPU  0 instructions:   80000000 cycles:  138696652 heartbeat IPC: 0.20790 cumulative IPC: 0.26507 (Simulation time: 0 hr 10 min 46 sec) 
Heartbeat CPU  2 instructions:   90000001 cycles:  140671374 heartbeat IPC: 0.17319 cumulative IPC: 0.26237 (Simulation time: 0 hr 10 min 50 sec) 
Heartbeat CPU  3 instructions:   75000000 cycles:  142256148 heartbeat IPC: 0.21475 cumulative IPC: 0.21269 (Simulation time: 0 hr 10 min 53 sec) 
Heartbeat CPU  1 instructions:   79000003 cycles:  142727801 heartbeat IPC: 0.20753 cumulative IPC: 0.24220 (Simulation time: 0 hr 10 min 54 sec) 
Heartbeat CPU  0 instructions:   81000003 cycles:  143492742 heartbeat IPC: 0.20850 cumulative IPC: 0.26277 (Simulation time: 0 hr 10 min 56 sec) 
Heartbeat CPU  2 instructions:   91000003 cycles:  146483026 heartbeat IPC: 0.17207 cumulative IPC: 0.25803 (Simulation time: 0 hr 11 min 2 sec) 
Heartbeat CPU  3 instructions:   76000000 cycles:  147077677 heartbeat IPC: 0.20740 cumulative IPC: 0.21248 (Simulation time: 0 hr 11 min 3 sec) 
Heartbeat CPU  1 instructions:   80000000 cycles:  147426847 heartbeat IPC: 0.21281 cumulative IPC: 0.24107 (Simulation time: 0 hr 11 min 3 sec) 
Heartbeat CPU  0 instructions:   82000001 cycles:  148159239 heartbeat IPC: 0.21429 cumulative IPC: 0.26092 (Simulation time: 0 hr 11 min 5 sec) 
Heartbeat CPU  3 instructions:   77000000 cycles:  151835689 heartbeat IPC: 0.21017 cumulative IPC: 0.21239 (Simulation time: 0 hr 11 min 12 sec) 
Heartbeat CPU  1 instructions:   81000003 cycles:  152203014 heartbeat IPC: 0.20937 cumulative IPC: 0.23987 (Simulation time: 0 hr 11 min 13 sec) 
Heartbeat CPU  2 instructions:   92000000 cycles:  152405155 heartbeat IPC: 0.16886 cumulative IPC: 0.25387 (Simulation time: 0 hr 11 min 13 sec) 
Heartbeat CPU  0 instructions:   83000000 cycles:  152903366 heartbeat IPC: 0.21079 cumulative IPC: 0.25906 (Simulation time: 0 hr 11 min 14 sec) 
Heartbeat CPU  3 instructions:   78000000 cycles:  156553278 heartbeat IPC: 0.21197 cumulative IPC: 0.21237 (Simulation time: 0 hr 11 min 22 sec) 
Heartbeat CPU  1 instructions:   82000000 cycles:  156952806 heartbeat IPC: 0.21053 cumulative IPC: 0.23881 (Simulation time: 0 hr 11 min 22 sec) 
Heartbeat CPU  0 instructions:   84000000 cycles:  157626123 heartbeat IPC: 0.21174 cumulative IPC: 0.25736 (Simulation time: 0 hr 11 min 24 sec) 
Heartbeat CPU  2 instructions:   93000003 cycles:  158278637 heartbeat IPC: 0.17026 cumulative IPC: 0.25017 (Simulation time: 0 hr 11 min 25 sec) 
Heartbeat CPU  3 instructions:   79000000 cycles:  161347464 heartbeat IPC: 0.20859 cumulative IPC: 0.21224 (Simulation time: 0 hr 11 min 31 sec) 
Heartbeat CPU  1 instructions:   83000001 cycles:  161627669 heartbeat IPC: 0.21391 cumulative IPC: 0.23796 (Simulation time: 0 hr 11 min 32 sec) 
Heartbeat CPU  0 instructions:   85000000 cycles:  162534935 heartbeat IPC: 0.20372 cumulative IPC: 0.25544 (Simulation time: 0 hr 11 min 34 sec) 
Heartbeat CPU  2 instructions:   94000002 cycles:  164113340 heartbeat IPC: 0.17139 cumulative IPC: 0.24686 (Simulation time: 0 hr 11 min 37 sec) 
Heartbeat CPU  3 instructions:   80000000 cycles:  166090916 heartbeat IPC: 0.21082 cumulative IPC: 0.21219 (Simulation time: 0 hr 11 min 41 sec) 
Heartbeat CPU  1 instructions:   84000000 cycles:  166562336 heartbeat IPC: 0.20265 cumulative IPC: 0.23672 (Simulation time: 0 hr 11 min 42 sec) 
Heartbeat CPU  0 instructions:   86000003 cycles:  167197110 heartbeat IPC: 0.21449 cumulative IPC: 0.25410 (Simulation time: 0 hr 11 min 43 sec) 
Heartbeat CPU  2 instructions:   95000001 cycles:  169948129 heartbeat IPC: 0.17139 cumulative IPC: 0.24381 (Simulation time: 0 hr 11 min 48 sec) 
Heartbeat CPU  3 instructions:   81000003 cycles:  170872574 heartbeat IPC: 0.20913 cumulative IPC: 0.21209 (Simulation time: 0 hr 11 min 50 sec) 
Heartbeat CPU  1 instructions:   85000002 cycles:  171334623 heartbeat IPC: 0.20954 cumulative IPC: 0.23583 (Simulation time: 0 hr 11 min 51 sec) 
Heartbeat CPU  0 instructions:   87000003 cycles:  172076914 heartbeat IPC: 0.20493 cumulative IPC: 0.25246 (Simulation time: 0 hr 11 min 53 sec) 
Heartbeat CPU  3 instructions:   82000003 cycles:  175596481 heartbeat IPC: 0.21169 cumulative IPC: 0.21208 (Simulation time: 0 hr 12 min 0 sec) 
Heartbeat CPU  2 instructions:   96000000 cycles:  175762693 heartbeat IPC: 0.17198 cumulative IPC: 0.24103 (Simulation time: 0 hr 12 min 0 sec) 
Heartbeat CPU  1 instructions:   86000003 cycles:  176155279 heartbeat IPC: 0.20744 cumulative IPC: 0.23492 (Simulation time: 0 hr 12 min 1 sec) 
Heartbeat CPU  0 instructions:   88000000 cycles:  176930276 heartbeat IPC: 0.20604 cumulative IPC: 0.25097 (Simulation time: 0 hr 12 min 3 sec) 
Heartbeat CPU  3 instructions:   83000000 cycles:  180297877 heartbeat IPC: 0.21270 cumulative IPC: 0.21210 (Simulation time: 0 hr 12 min 10 sec) 
Heartbeat CPU  1 instructions:   87000002 cycles:  180931289 heartbeat IPC: 0.20938 cumulative IPC: 0.23414 (Simulation time: 0 hr 12 min 11 sec) 
Heartbeat CPU  2 instructions:   97000000 cycles:  181529331 heartbeat IPC: 0.17341 cumulative IPC: 0.23853 (Simulation time: 0 hr 12 min 12 sec) 
Heartbeat CPU  0 instructions:   89000001 cycles:  181599091 heartbeat IPC: 0.21419 cumulative IPC: 0.24987 (Simulation time: 0 hr 12 min 12 sec) 
Heartbeat CPU  3 instructions:   84000000 cycles:  184948692 heartbeat IPC: 0.21502 cumulative IPC: 0.21218 (Simulation time: 0 hr 12 min 19 sec) 
Heartbeat CPU  1 instructions:   88000000 cycles:  185539051 heartbeat IPC: 0.21702 cumulative IPC: 0.23365 (Simulation time: 0 hr 12 min 20 sec) 
Heartbeat CPU  0 instructions:   90000000 cycles:  186340952 heartbeat IPC: 0.21089 cumulative IPC: 0.24872 (Simulation time: 0 hr 12 min 22 sec) 
Heartbeat CPU  2 instructions:   98000003 cycles:  187061927 heartbeat IPC: 0.18075 cumulative IPC: 0.23655 (Simulation time: 0 hr 12 min 23 sec) 
Heartbeat CPU  3 instructions:   85000002 cycles:  189839792 heartbeat IPC: 0.20445 cumulative IPC: 0.21195 (Simulation time: 0 hr 12 min 29 sec) 
Heartbeat CPU  1 instructions:   89000000 cycles:  190154760 heartbeat IPC: 0.21665 cumulative IPC: 0.23317 (Simulation time: 0 hr 12 min 30 sec) 
Heartbeat CPU  0 instructions:   91000002 cycles:  191068498 heartbeat IPC: 0.21153 cumulative IPC: 0.24766 (Simulation time: 0 hr 12 min 31 sec) 
Heartbeat CPU  2 instructions:   99000000 cycles:  192876753 heartbeat IPC: 0.17197 cumulative IPC: 0.23431 (Simulation time: 0 hr 12 min 35 sec) 
Heartbeat CPU  3 instructions:   86000003 cycles:  194534865 heartbeat IPC: 0.21299 cumulative IPC: 0.21198 (Simulation time: 0 hr 12 min 38 sec) 
Heartbeat CPU  1 instructions:   90000000 cycles:  194839599 heartbeat IPC: 0.21345 cumulative IPC: 0.23262 (Simulation time: 0 hr 12 min 39 sec) 
Heartbeat CPU  0 instructions:   92000000 cycles:  195886893 heartbeat IPC: 0.20754 cumulative IPC: 0.24652 (Simulation time: 0 hr 12 min 41 sec) 
*** Reached end of trace for Core: 2 Repeating trace: /data3/STREAMING/traces/streaming_phase1_core2.trace.xz
Heartbeat CPU  2 instructions:  100000000 cycles:  198494059 heartbeat IPC: 0.17802 cumulative IPC: 0.23248 (Simulation time: 0 hr 12 min 47 sec) 
Heartbeat CPU  3 instructions:   87000001 cycles:  199330447 heartbeat IPC: 0.20852 cumulative IPC: 0.21189 (Simulation time: 0 hr 12 min 49 sec) 
Heartbeat CPU  1 instructions:   91000000 cycles:  199567752 heartbeat IPC: 0.21150 cumulative IPC: 0.23205 (Simulation time: 0 hr 12 min 49 sec) 
Heartbeat CPU  2 instructions:  101000001 cycles:  200350589 heartbeat IPC: 0.53864 cumulative IPC: 0.23573 (Simulation time: 0 hr 12 min 51 sec) 
Heartbeat CPU  0 instructions:   93000000 cycles:  200678886 heartbeat IPC: 0.20868 cumulative IPC: 0.24549 (Simulation time: 0 hr 12 min 52 sec) 
Heartbeat CPU  2 instructions:  102000003 cycles:  202308151 heartbeat IPC: 0.51084 cumulative IPC: 0.23878 (Simulation time: 0 hr 12 min 56 sec) 
Heartbeat CPU  3 instructions:   88000000 cycles:  204167458 heartbeat IPC: 0.20674 cumulative IPC: 0.21175 (Simulation time: 0 hr 13 min 0 sec) 
Heartbeat CPU  2 instructions:  103000001 cycles:  204199348 heartbeat IPC: 0.52876 cumulative IPC: 0.24184 (Simulation time: 0 hr 13 min 1 sec) 
Heartbeat CPU  1 instructions:   92000000 cycles:  204288334 heartbeat IPC: 0.21184 cumulative IPC: 0.23152 (Simulation time: 0 hr 13 min 1 sec) 
Heartbeat CPU  0 instructions:   94000000 cycles:  205477296 heartbeat IPC: 0.20840 cumulative IPC: 0.24450 (Simulation time: 0 hr 13 min 4 sec) 
Heartbeat CPU  2 instructions:  104000000 cycles:  206149921 heartbeat IPC: 0.51267 cumulative IPC: 0.24477 (Simulation time: 0 hr 13 min 5 sec) 
Heartbeat CPU  2 instructions:  105000001 cycles:  208048976 heartbeat IPC: 0.52658 cumulative IPC: 0.24770 (Simulation time: 0 hr 13 min 10 sec) 
Heartbeat CPU  3 instructions:   89000003 cycles:  208890643 heartbeat IPC: 0.21172 cumulative IPC: 0.21175 (Simulation time: 0 hr 13 min 12 sec) 
Heartbeat CPU  1 instructions:   93000001 cycles:  209145475 heartbeat IPC: 0.20588 cumulative IPC: 0.23084 (Simulation time: 0 hr 13 min 13 sec) 
Heartbeat CPU  2 instructions:  106000000 cycles:  209702853 heartbeat IPC: 0.60464 cumulative IPC: 0.25091 (Simulation time: 0 hr 13 min 14 sec) 
Heartbeat CPU  0 instructions:   95000000 cycles:  210267145 heartbeat IPC: 0.20877 cumulative IPC: 0.24357 (Simulation time: 0 hr 13 min 15 sec) 
Heartbeat CPU  3 instructions:   90000003 cycles:  213620157 heartbeat IPC: 0.21144 cumulative IPC: 0.21174 (Simulation time: 0 hr 13 min 22 sec) 
Heartbeat CPU  1 instructions:   94000003 cycles:  213883628 heartbeat IPC: 0.21105 cumulative IPC: 0.23034 (Simulation time: 0 hr 13 min 23 sec) 
Heartbeat CPU  0 instructions:   96000000 cycles:  214989170 heartbeat IPC: 0.21177 cumulative IPC: 0.24278 (Simulation time: 0 hr 13 min 25 sec) 
Heartbeat CPU  2 instructions:  107000003 cycles:  215172877 heartbeat IPC: 0.18282 cumulative IPC: 0.24894 (Simulation time: 0 hr 13 min 25 sec) 
Heartbeat CPU  3 instructions:   91000000 cycles:  218348535 heartbeat IPC: 0.21149 cumulative IPC: 0.21173 (Simulation time: 0 hr 13 min 32 sec) 
Heartbeat CPU  1 instructions:   95000002 cycles:  218605649 heartbeat IPC: 0.21177 cumulative IPC: 0.22989 (Simulation time: 0 hr 13 min 32 sec) 
Heartbeat CPU  0 instructions:   97000003 cycles:  219685265 heartbeat IPC: 0.21294 cumulative IPC: 0.24206 (Simulation time: 0 hr 13 min 35 sec) 
Heartbeat CPU  2 instructions:  108000000 cycles:  220795659 heartbeat IPC: 0.17785 cumulative IPC: 0.24690 (Simulation time: 0 hr 13 min 37 sec) 
Heartbeat CPU  3 instructions:   92000000 cycles:  223088754 heartbeat IPC: 0.21096 cumulative IPC: 0.21171 (Simulation time: 0 hr 13 min 41 sec) 
Heartbeat CPU  1 instructions:   96000000 cycles:  223232280 heartbeat IPC: 0.21614 cumulative IPC: 0.22956 (Simulation time: 0 hr 13 min 42 sec) 
Heartbeat CPU  0 instructions:   98000002 cycles:  224483726 heartbeat IPC: 0.20840 cumulative IPC: 0.24125 (Simulation time: 0 hr 13 min 44 sec) 
Heartbeat CPU  2 instructions:  109000003 cycles:  226621968 heartbeat IPC: 0.17164 cumulative IPC: 0.24472 (Simulation time: 0 hr 13 min 48 sec) 
Heartbeat CPU  3 instructions:   93000000 cycles:  227855158 heartbeat IPC: 0.20980 cumulative IPC: 0.21167 (Simulation time: 0 hr 13 min 51 sec) 
Heartbeat CPU  1 instructions:   97000003 cycles:  227904308 heartbeat IPC: 0.21404 cumulative IPC: 0.22921 (Simulation time: 0 hr 13 min 51 sec) 
Heartbeat CPU  0 instructions:   99000000 cycles:  229455668 heartbeat IPC: 0.20113 cumulative IPC: 0.24027 (Simulation time: 0 hr 13 min 54 sec) 
Heartbeat CPU  2 instructions:  110000000 cycles:  232541742 heartbeat IPC: 0.16892 cumulative IPC: 0.24255 (Simulation time: 0 hr 14 min 1 sec) 
Heartbeat CPU  3 instructions:   94000000 cycles:  232602826 heartbeat IPC: 0.21063 cumulative IPC: 0.21165 (Simulation time: 0 hr 14 min 1 sec) 
Heartbeat CPU  1 instructions:   98000000 cycles:  232829690 heartbeat IPC: 0.20303 cumulative IPC: 0.22858 (Simulation time: 0 hr 14 min 1 sec) 
*** Reached end of trace for Core: 0 Repeating trace: /data3/STREAMING/traces/streaming_phase1_core0.trace.xz
Heartbeat CPU  0 instructions:  100000000 cycles:  234251561 heartbeat IPC: 0.20851 cumulative IPC: 0.23954 (Simulation time: 0 hr 14 min 4 sec) 
Heartbeat CPU  2 instructions:  111000001 cycles:  236907770 heartbeat IPC: 0.22904 cumulative IPC: 0.24227 (Simulation time: 0 hr 14 min 10 sec) 
Heartbeat CPU  3 instructions:   95000000 cycles:  237333477 heartbeat IPC: 0.21139 cumulative IPC: 0.21164 (Simulation time: 0 hr 14 min 11 sec) 
Heartbeat CPU  1 instructions:   99000000 cycles:  237753327 heartbeat IPC: 0.20310 cumulative IPC: 0.22799 (Simulation time: 0 hr 14 min 12 sec) 
Heartbeat CPU  2 instructions:  112000000 cycles:  238763988 heartbeat IPC: 0.53873 cumulative IPC: 0.24485 (Simulation time: 0 hr 14 min 14 sec) 
Heartbeat CPU  0 instructions:  101000001 cycles:  238937766 heartbeat IPC: 0.21339 cumulative IPC: 0.23897 (Simulation time: 0 hr 14 min 15 sec) 
Heartbeat CPU  2 instructions:  113000002 cycles:  240623354 heartbeat IPC: 0.53782 cumulative IPC: 0.24738 (Simulation time: 0 hr 14 min 19 sec) 
Heartbeat CPU  3 instructions:   96000000 cycles:  242096154 heartbeat IPC: 0.20997 cumulative IPC: 0.21160 (Simulation time: 0 hr 14 min 23 sec) 
*** Reached end of trace for Core: 1 Repeating trace: /data3/STREAMING/traces/streaming_phase1_core1.trace.xz
Heartbeat CPU  1 instructions:  100000000 cycles:  242459182 heartbeat IPC: 0.21250 cumulative IPC: 0.22766 (Simulation time: 0 hr 14 min 23 sec) 
Heartbeat CPU  2 instructions:  114000000 cycles:  242592522 heartbeat IPC: 0.50783 cumulative IPC: 0.24974 (Simulation time: 0 hr 14 min 24 sec) 
Heartbeat CPU  0 instructions:  102000000 cycles:  243547867 heartbeat IPC: 0.21691 cumulative IPC: 0.23850 (Simulation time: 0 hr 14 min 26 sec) 
Heartbeat CPU  2 instructions:  115000002 cycles:  244516281 heartbeat IPC: 0.51982 cumulative IPC: 0.25212 (Simulation time: 0 hr 14 min 28 sec) 
Heartbeat CPU  2 instructions:  116000000 cycles:  246343419 heartbeat IPC: 0.54730 cumulative IPC: 0.25456 (Simulation time: 0 hr 14 min 33 sec) 
Heartbeat CPU  3 instructions:   97000002 cycles:  246871756 heartbeat IPC: 0.20940 cumulative IPC: 0.21155 (Simulation time: 0 hr 14 min 34 sec) 
Heartbeat CPU  1 instructions:  101000002 cycles:  246982702 heartbeat IPC: 0.22107 cumulative IPC: 0.22752 (Simulation time: 0 hr 14 min 34 sec) 
Heartbeat CPU  2 instructions:  117000000 cycles:  248187257 heartbeat IPC: 0.54235 cumulative IPC: 0.25694 (Simulation time: 0 hr 14 min 37 sec) 
Heartbeat CPU  0 instructions:  103000000 cycles:  248305040 heartbeat IPC: 0.21021 cumulative IPC: 0.23790 (Simulation time: 0 hr 14 min 38 sec) 
Heartbeat CPU  2 instructions:  118000000 cycles:  249971770 heartbeat IPC: 0.56038 cumulative IPC: 0.25935 (Simulation time: 0 hr 14 min 42 sec) 
Heartbeat CPU  3 instructions:   98000003 cycles:  251541354 heartbeat IPC: 0.21415 cumulative IPC: 0.21161 (Simulation time: 0 hr 14 min 46 sec) 
Heartbeat CPU  1 instructions:  102000001 cycles:  251610815 heartbeat IPC: 0.21607 cumulative IPC: 0.22729 (Simulation time: 0 hr 14 min 46 sec) 
Heartbeat CPU  2 instructions:  119000003 cycles:  251746704 heartbeat IPC: 0.56340 cumulative IPC: 0.26174 (Simulation time: 0 hr 14 min 46 sec) 
Heartbeat CPU  0 instructions:  104000000 cycles:  252929910 heartbeat IPC: 0.21622 cumulative IPC: 0.23745 (Simulation time: 0 hr 14 min 49 sec) 
Heartbeat CPU  2 instructions:  120000000 cycles:  253457782 heartbeat IPC: 0.58443 cumulative IPC: 0.26416 (Simulation time: 0 hr 14 min 51 sec) 
Heartbeat CPU  2 instructions:  121000003 cycles:  255237818 heartbeat IPC: 0.56179 cumulative IPC: 0.26647 (Simulation time: 0 hr 14 min 55 sec) 
Heartbeat CPU  1 instructions:  103000000 cycles:  256269841 heartbeat IPC: 0.21464 cumulative IPC: 0.22703 (Simulation time: 0 hr 14 min 57 sec) 
Heartbeat CPU  3 instructions:   99000002 cycles:  256461699 heartbeat IPC: 0.20324 cumulative IPC: 0.21143 (Simulation time: 0 hr 14 min 58 sec) 
Heartbeat CPU  2 instructions:  122000001 cycles:  257216137 heartbeat IPC: 0.50548 cumulative IPC: 0.26851 (Simulation time: 0 hr 15 min 0 sec) 
Heartbeat CPU  0 instructions:  105000002 cycles:  257580823 heartbeat IPC: 0.21501 cumulative IPC: 0.23700 (Simulation time: 0 hr 15 min 1 sec) 
Heartbeat CPU  2 instructions:  123000001 cycles:  259059766 heartbeat IPC: 0.54241 cumulative IPC: 0.27067 (Simulation time: 0 hr 15 min 4 sec) 
Heartbeat CPU  1 instructions:  104000000 cycles:  260841002 heartbeat IPC: 0.21876 cumulative IPC: 0.22687 (Simulation time: 0 hr 15 min 9 sec) 
Heartbeat CPU  2 instructions:  124000000 cycles:  260995041 heartbeat IPC: 0.51672 cumulative IPC: 0.27269 (Simulation time: 0 hr 15 min 9 sec) 
*** Reached end of trace for Core: 3 Repeating trace: /data3/STREAMING/traces/streaming_phase1_core3.trace.xz
Heartbeat CPU  3 instructions:  100000000 cycles:  261473245 heartbeat IPC: 0.19954 cumulative IPC: 0.21118 (Simulation time: 0 hr 15 min 10 sec) 
Heartbeat CPU  0 instructions:  106000002 cycles:  261729313 heartbeat IPC: 0.24105 cumulative IPC: 0.23708 (Simulation time: 0 hr 15 min 11 sec) 
Heartbeat CPU  2 instructions:  125000001 cycles:  263027284 heartbeat IPC: 0.49207 cumulative IPC: 0.27457 (Simulation time: 0 hr 15 min 14 sec) 
Heartbeat CPU  2 instructions:  126000003 cycles:  264779775 heartbeat IPC: 0.57062 cumulative IPC: 0.27674 (Simulation time: 0 hr 15 min 18 sec) 
Heartbeat CPU  1 instructions:  105000000 cycles:  265487409 heartbeat IPC: 0.21522 cumulative IPC: 0.22665 (Simulation time: 0 hr 15 min 20 sec) 
Heartbeat CPU  0 instructions:  107000001 cycles:  265836060 heartbeat IPC: 0.24350 cumulative IPC: 0.23719 (Simulation time: 0 hr 15 min 21 sec) 
Heartbeat CPU  3 instructions:  101000002 cycles:  266170077 heartbeat IPC: 0.21291 cumulative IPC: 0.21121 (Simulation time: 0 hr 15 min 22 sec) 
Heartbeat CPU  2 instructions:  127000001 cycles:  266534338 heartbeat IPC: 0.56994 cumulative IPC: 0.27887 (Simulation time: 0 hr 15 min 23 sec) 
Heartbeat CPU  2 instructions:  128000000 cycles:  268284776 heartbeat IPC: 0.57129 cumulative IPC: 0.28098 (Simulation time: 0 hr 15 min 27 sec) 
Heartbeat CPU  2 instructions:  129000002 cycles:  270054933 heartbeat IPC: 0.56492 cumulative IPC: 0.28304 (Simulation time: 0 hr 15 min 32 sec) 
Heartbeat CPU  1 instructions:  106000002 cycles:  270163521 heartbeat IPC: 0.21385 cumulative IPC: 0.22640 (Simulation time: 0 hr 15 min 32 sec) 
Heartbeat CPU  0 instructions:  108000000 cycles:  270329597 heartbeat IPC: 0.22254 cumulative IPC: 0.23692 (Simulation time: 0 hr 15 min 32 sec) 
Heartbeat CPU  3 instructions:  102000000 cycles:  270890354 heartbeat IPC: 0.21185 cumulative IPC: 0.21122 (Simulation time: 0 hr 15 min 34 sec) 
Heartbeat CPU  2 instructions:  130000003 cycles:  271865542 heartbeat IPC: 0.55230 cumulative IPC: 0.28502 (Simulation time: 0 hr 15 min 36 sec) 
Heartbeat CPU  2 instructions:  131000000 cycles:  273742781 heartbeat IPC: 0.53270 cumulative IPC: 0.28689 (Simulation time: 0 hr 15 min 41 sec) 
Heartbeat CPU  1 instructions:  107000002 cycles:  274596173 heartbeat IPC: 0.22560 cumulative IPC: 0.22639 (Simulation time: 0 hr 15 min 43 sec) 
Heartbeat CPU  0 instructions:  109000002 cycles:  274962785 heartbeat IPC: 0.21583 cumulative IPC: 0.23653 (Simulation time: 0 hr 15 min 44 sec) 
Heartbeat CPU  3 instructions:  103000003 cycles:  275526590 heartbeat IPC: 0.21569 cumulative IPC: 0.21131 (Simulation time: 0 hr 15 min 45 sec) 
Heartbeat CPU  2 instructions:  132000000 cycles:  275565672 heartbeat IPC: 0.54858 cumulative IPC: 0.28880 (Simulation time: 0 hr 15 min 45 sec) 
Heartbeat CPU  2 instructions:  133000003 cycles:  277372990 heartbeat IPC: 0.55331 cumulative IPC: 0.29070 (Simulation time: 0 hr 15 min 50 sec) 
Heartbeat CPU  2 instructions:  134000001 cycles:  279146960 heartbeat IPC: 0.56371 cumulative IPC: 0.29261 (Simulation time: 0 hr 15 min 54 sec) 
Heartbeat CPU  1 instructions:  108000000 cycles:  279201675 heartbeat IPC: 0.21713 cumulative IPC: 0.22622 (Simulation time: 0 hr 15 min 54 sec) 
Heartbeat CPU  0 instructions:  110000001 cycles:  279651020 heartbeat IPC: 0.21330 cumulative IPC: 0.23610 (Simulation time: 0 hr 15 min 55 sec) 
Heartbeat CPU  3 instructions:  104000000 cycles:  280237275 heartbeat IPC: 0.21228 cumulative IPC: 0.21132 (Simulation time: 0 hr 15 min 57 sec) 
Heartbeat CPU  2 instructions:  135000000 cycles:  280962523 heartbeat IPC: 0.55079 cumulative IPC: 0.29444 (Simulation time: 0 hr 15 min 59 sec) 
Heartbeat CPU  2 instructions:  136000000 cycles:  282866710 heartbeat IPC: 0.52516 cumulative IPC: 0.29615 (Simulation time: 0 hr 16 min 3 sec) 
Heartbeat CPU  1 instructions:  109000001 cycles:  283909034 heartbeat IPC: 0.21243 cumulative IPC: 0.22597 (Simulation time: 0 hr 16 min 6 sec) 
Heartbeat CPU  0 instructions:  111000001 cycles:  284306619 heartbeat IPC: 0.21480 cumulative IPC: 0.23571 (Simulation time: 0 hr 16 min 6 sec) 
Heartbeat CPU  3 instructions:  105000001 cycles:  284989241 heartbeat IPC: 0.21044 cumulative IPC: 0.21131 (Simulation time: 0 hr 16 min 8 sec) 
Heartbeat CPU  3 instructions:  106000002 cycles:  286766225 heartbeat IPC: 0.56275 cumulative IPC: 0.21370 (Simulation time: 0 hr 16 min 12 sec) 
Heartbeat CPU  2 instructions:  137000000 cycles:  286998739 heartbeat IPC: 0.24201 cumulative IPC: 0.29529 (Simulation time: 0 hr 16 min 13 sec) 
Heartbeat CPU  1 instructions:  110000003 cycles:  288778672 heartbeat IPC: 0.20535 cumulative IPC: 0.22559 (Simulation time: 0 hr 16 min 16 sec) 
Heartbeat CPU  0 instructions:  112000000 cycles:  288925922 heartbeat IPC: 0.21648 cumulative IPC: 0.23538 (Simulation time: 0 hr 16 min 17 sec) 
Heartbeat CPU  3 instructions:  107000000 cycles:  291272240 heartbeat IPC: 0.22193 cumulative IPC: 0.21384 (Simulation time: 0 hr 16 min 21 sec) 
Heartbeat CPU  2 instructions:  138000002 cycles:  292662011 heartbeat IPC: 0.17658 cumulative IPC: 0.29278 (Simulation time: 0 hr 16 min 24 sec) 
Heartbeat CPU  1 instructions:  111000003 cycles:  293449405 heartbeat IPC: 0.21410 cumulative IPC: 0.22539 (Simulation time: 0 hr 16 min 26 sec) 
Heartbeat CPU  0 instructions:  113000002 cycles:  293499371 heartbeat IPC: 0.21865 cumulative IPC: 0.23509 (Simulation time: 0 hr 16 min 26 sec) 
Heartbeat CPU  3 instructions:  108000000 cycles:  295878852 heartbeat IPC: 0.21708 cumulative IPC: 0.21389 (Simulation time: 0 hr 16 min 30 sec) 
Heartbeat CPU  1 instructions:  112000000 cycles:  298151867 heartbeat IPC: 0.21265 cumulative IPC: 0.22517 (Simulation time: 0 hr 16 min 35 sec) 
Heartbeat CPU  0 instructions:  114000001 cycles:  298194323 heartbeat IPC: 0.21299 cumulative IPC: 0.23471 (Simulation time: 0 hr 16 min 35 sec) 
Heartbeat CPU  2 instructions:  139000001 cycles:  298464119 heartbeat IPC: 0.17235 cumulative IPC: 0.29022 (Simulation time: 0 hr 16 min 36 sec) 
Heartbeat CPU  3 instructions:  109000000 cycles:  300607617 heartbeat IPC: 0.21147 cumulative IPC: 0.21385 (Simulation time: 0 hr 16 min 40 sec) 
Heartbeat CPU  0 instructions:  115000001 cycles:  302849730 heartbeat IPC: 0.21480 cumulative IPC: 0.23438 (Simulation time: 0 hr 16 min 45 sec) 
Heartbeat CPU  1 instructions:  113000001 cycles:  302916898 heartbeat IPC: 0.20986 cumulative IPC: 0.22490 (Simulation time: 0 hr 16 min 45 sec) 
Heartbeat CPU  2 instructions:  140000000 cycles:  304070861 heartbeat IPC: 0.17836 cumulative IPC: 0.28796 (Simulation time: 0 hr 16 min 47 sec) 
Heartbeat CPU  3 instructions:  110000000 cycles:  305394166 heartbeat IPC: 0.20892 cumulative IPC: 0.21377 (Simulation time: 0 hr 16 min 50 sec) 
Heartbeat CPU  0 instructions:  116000000 cycles:  307537505 heartbeat IPC: 0.21332 cumulative IPC: 0.23403 (Simulation time: 0 hr 16 min 54 sec) 
Heartbeat CPU  1 instructions:  114000003 cycles:  307641302 heartbeat IPC: 0.21167 cumulative IPC: 0.22468 (Simulation time: 0 hr 16 min 54 sec) 
Heartbeat CPU  2 instructions:  141000001 cycles:  309769606 heartbeat IPC: 0.17548 cumulative IPC: 0.28571 (Simulation time: 0 hr 16 min 59 sec) 
Heartbeat CPU  3 instructions:  111000001 cycles:  310076353 heartbeat IPC: 0.21358 cumulative IPC: 0.21376 (Simulation time: 0 hr 16 min 59 sec) 
Heartbeat CPU  0 instructions:  117000002 cycles:  312139994 heartbeat IPC: 0.21727 cumulative IPC: 0.23376 (Simulation time: 0 hr 17 min 4 sec) 
Heartbeat CPU  1 instructions:  115000000 cycles:  312412105 heartbeat IPC: 0.20961 cumulative IPC: 0.22443 (Simulation time: 0 hr 17 min 4 sec) 
Heartbeat CPU  3 instructions:  112000000 cycles:  314709556 heartbeat IPC: 0.21583 cumulative IPC: 0.21380 (Simulation time: 0 hr 17 min 9 sec) 
Heartbeat CPU  2 instructions:  142000000 cycles:  315571495 heartbeat IPC: 0.17236 cumulative IPC: 0.28344 (Simulation time: 0 hr 17 min 10 sec) 
Heartbeat CPU  0 instructions:  118000001 cycles:  316759340 heartbeat IPC: 0.21648 cumulative IPC: 0.23348 (Simulation time: 0 hr 17 min 13 sec) 
Heartbeat CPU  1 instructions:  116000000 cycles:  316949838 heartbeat IPC: 0.22037 cumulative IPC: 0.22437 (Simulation time: 0 hr 17 min 13 sec) 
Heartbeat CPU  3 instructions:  113000002 cycles:  319271131 heartbeat IPC: 0.21922 cumulative IPC: 0.21388 (Simulation time: 0 hr 17 min 18 sec) 
Heartbeat CPU  0 instructions:  119000002 cycles:  321307333 heartbeat IPC: 0.21988 cumulative IPC: 0.23327 (Simulation time: 0 hr 17 min 22 sec) 
Heartbeat CPU  2 instructions:  143000001 cycles:  321412229 heartbeat IPC: 0.17121 cumulative IPC: 0.28123 (Simulation time: 0 hr 17 min 22 sec) 
Heartbeat CPU  1 instructions:  117000000 cycles:  321581768 heartbeat IPC: 0.21589 cumulative IPC: 0.22424 (Simulation time: 0 hr 17 min 23 sec) 
Heartbeat CPU  3 instructions:  114000001 cycles:  323958006 heartbeat IPC: 0.21336 cumulative IPC: 0.21387 (Simulation time: 0 hr 17 min 27 sec) 
Heartbeat CPU  0 instructions:  120000000 cycles:  325865269 heartbeat IPC: 0.21940 cumulative IPC: 0.23306 (Simulation time: 0 hr 17 min 31 sec) 
Heartbeat CPU  1 instructions:  118000001 cycles:  326171796 heartbeat IPC: 0.21786 cumulative IPC: 0.22414 (Simulation time: 0 hr 17 min 32 sec) 
Heartbeat CPU  2 instructions:  144000000 cycles:  327269115 heartbeat IPC: 0.17074 cumulative IPC: 0.27908 (Simulation time: 0 hr 17 min 34 sec) 
Heartbeat CPU  3 instructions:  115000003 cycles:  328622726 heartbeat IPC: 0.21438 cumulative IPC: 0.21388 (Simulation time: 0 hr 17 min 37 sec) 
Heartbeat CPU  0 instructions:  121000003 cycles:  330369759 heartbeat IPC: 0.22200 cumulative IPC: 0.23290 (Simulation time: 0 hr 17 min 40 sec) 
Heartbeat CPU  1 instructions:  119000003 cycles:  330711608 heartbeat IPC: 0.22027 cumulative IPC: 0.22408 (Simulation time: 0 hr 17 min 41 sec) 
Heartbeat CPU  2 instructions:  145000003 cycles:  333085292 heartbeat IPC: 0.17193 cumulative IPC: 0.27706 (Simulation time: 0 hr 17 min 46 sec) 
Heartbeat CPU  3 instructions:  116000000 cycles:  333167395 heartbeat IPC: 0.22004 cumulative IPC: 0.21397 (Simulation time: 0 hr 17 min 46 sec) 
Heartbeat CPU  0 instructions:  122000001 cycles:  334949595 heartbeat IPC: 0.21835 cumulative IPC: 0.23268 (Simulation time: 0 hr 17 min 50 sec) 
Heartbeat CPU  1 instructions:  120000000 cycles:  335215147 heartbeat IPC: 0.22205 cumulative IPC: 0.22405 (Simulation time: 0 hr 17 min 50 sec) 
Heartbeat CPU  3 instructions:  117000000 cycles:  337814905 heartbeat IPC: 0.21517 cumulative IPC: 0.21399 (Simulation time: 0 hr 17 min 55 sec) 
Heartbeat CPU  2 instructions:  146000001 cycles:  339000334 heartbeat IPC: 0.16906 cumulative IPC: 0.27502 (Simulation time: 0 hr 17 min 58 sec) 
Heartbeat CPU  0 instructions:  123000000 cycles:  339708772 heartbeat IPC: 0.21012 cumulative IPC: 0.23234 (Simulation time: 0 hr 17 min 59 sec) 
Heartbeat CPU  1 instructions:  121000002 cycles:  339747300 heartbeat IPC: 0.22065 cumulative IPC: 0.22400 (Simulation time: 0 hr 17 min 59 sec) 
Heartbeat CPU  3 instructions:  118000002 cycles:  342480152 heartbeat IPC: 0.21435 cumulative IPC: 0.21400 (Simulation time: 0 hr 18 min 5 sec) 
Heartbeat CPU  1 instructions:  122000003 cycles:  344319799 heartbeat IPC: 0.21870 cumulative IPC: 0.22393 (Simulation time: 0 hr 18 min 9 sec) 
Heartbeat CPU  0 instructions:  124000000 cycles:  344436944 heartbeat IPC: 0.21150 cumulative IPC: 0.23203 (Simulation time: 0 hr 18 min 9 sec) 
Heartbeat CPU  2 instructions:  147000002 cycles:  344885042 heartbeat IPC: 0.16993 cumulative IPC: 0.27308 (Simulation time: 0 hr 18 min 10 sec) 
Heartbeat CPU  3 instructions:  119000000 cycles:  347046823 heartbeat IPC: 0.21898 cumulative IPC: 0.21407 (Simulation time: 0 hr 18 min 14 sec) 
Heartbeat CPU  1 instructions:  123000001 cycles:  348768165 heartbeat IPC: 0.22480 cumulative IPC: 0.22394 (Simulation time: 0 hr 18 min 18 sec) 
Heartbeat CPU  0 instructions:  125000002 cycles:  349273404 heartbeat IPC: 0.20676 cumulative IPC: 0.23166 (Simulation time: 0 hr 18 min 19 sec) 
Heartbeat CPU  2 instructions:  148000000 cycles:  350662713 heartbeat IPC: 0.17308 cumulative IPC: 0.27130 (Simulation time: 0 hr 18 min 21 sec) 
Heartbeat CPU  3 instructions:  120000000 cycles:  351605502 heartbeat IPC: 0.21936 cumulative IPC: 0.21414 (Simulation time: 0 hr 18 min 23 sec) 
Heartbeat CPU  1 instructions:  124000000 cycles:  353415769 heartbeat IPC: 0.21516 cumulative IPC: 0.22381 (Simulation time: 0 hr 18 min 27 sec) 
Heartbeat CPU  0 instructions:  126000001 cycles:  353928586 heartbeat IPC: 0.21481 cumulative IPC: 0.23142 (Simulation time: 0 hr 18 min 28 sec) 
Heartbeat CPU  3 instructions:  121000003 cycles:  356152376 heartbeat IPC: 0.21993 cumulative IPC: 0.21422 (Simulation time: 0 hr 18 min 32 sec) 
Heartbeat CPU  2 instructions:  149000003 cycles:  356543543 heartbeat IPC: 0.17004 cumulative IPC: 0.26951 (Simulation time: 0 hr 18 min 33 sec) 
Heartbeat CPU  1 instructions:  125000002 cycles:  358127202 heartbeat IPC: 0.21225 cumulative IPC: 0.22365 (Simulation time: 0 hr 18 min 36 sec) 
[...]
Core_1_L1D_acc_level_1 0
Core_1_L1D_acc_level_2 0
Core_1_L1D_acc_level_3 0
Core_1_L1D_acc_level_4 0
Core_1_L1D_acc_level_5 0
Core_1_L1D_acc_level_6 0
Core_1_L1D_acc_level_7 0
Core_1_L1D_acc_level_8 0
Core_1_L1D_acc_level_9 0

Core_1_L1I_total_access 32292583
Core_1_L1I_total_hit 26389137
Core_1_L1I_total_miss 5903446
Core_1_L1I_loads 32292583
Core_1_L1I_load_hit 26389137
Core_1_L1I_load_miss 5903446
Core_1_L1I_RFOs 0
Core_1_L1I_RFO_hit 0
Core_1_L1I_RFO_miss 0
Core_1_L1I_prefetches 0
Core_1_L1I_prefetch_hit 0
Core_1_L1I_prefetch_miss 0
Core_1_L1I_writebacks 0
Core_1_L1I_writeback_hit 0
Core_1_L1I_writeback_miss 0
Core_1_L1I_prefetch_requested 0
Core_1_L1I_prefetch_dropped 0
Core_1_L1I_prefetch_issued 0
Core_1_L1I_prefetch_filled 0
Core_1_L1I_prefetch_useful 0
Core_1_L1I_prefetch_useless 0
Core_1_L1I_prefetch_late 0
Core_1_L1I_average_miss_latency 103.28095

Core_1_L1I_rq_access 156741616
Core_1_L1I_rq_forward 0
Core_1_L1I_rq_merged 119205076
Core_1_L1I_rq_to_cache 37536540
Core_1_L1I_rq_full 0

Core_1_L1I_wq_access 0
Core_1_L1I_wq_forward 0
Core_1_L1I_wq_merged 0
Core_1_L1I_wq_to_cache 0
Core_1_L1I_wq_full 0

Core_1_L1I_pq_access 0
Core_1_L1I_pq_forward 0
Core_1_L1I_pq_merged 0
Core_1_L1I_pq_to_cache 0
Core_1_L1I_pq_full 0

Core_1_L1I_acc_epochs 178346
Core_1_L1I_acc_level_0 178346
Core_1_L1I_acc_level_1 0
Core_1_L1I_acc_level_2 0
Core_1_L1I_acc_level_3 0
Core_1_L1I_acc_level_4 0
Core_1_L1I_acc_level_5 0
Core_1_L1I_acc_level_6 0
Core_1_L1I_acc_level_7 0
Core_1_L1I_acc_level_8 0
Core_1_L1I_acc_level_9 0

Core_1_L2C_total_access 28889156
Core_1_L2C_total_hit 21936598
Core_1_L2C_total_miss 6952558
Core_1_L2C_loads 7994671
Core_1_L2C_load_hit 6514396
Core_1_L2C_load_miss 1480275
Core_1_L2C_RFOs 774061
Core_1_L2C_RFO_hit 384200
Core_1_L2C_RFO_miss 389861
Core_1_L2C_prefetches 19037911
Core_1_L2C_prefetch_hit 14132199
Core_1_L2C_prefetch_miss 4905712
Core_1_L2C_writebacks 1082513
Core_1_L2C_writeback_hit 905803
Core_1_L2C_writeback_miss 176710
Core_1_L2C_prefetch_requested 31611546
Core_1_L2C_prefetch_dropped 4059487
Core_1_L2C_prefetch_issued 27552059
Core_1_L2C_prefetch_filled 7344831
Core_1_L2C_prefetch_useful 917898
Core_1_L2C_prefetch_useless 6424383
Core_1_L2C_prefetch_late 70012
Core_1_L2C_average_miss_latency 127.09308

Core_1_L2C_rq_access 9192264
Core_1_L2C_rq_forward 0
Core_1_L2C_rq_merged 0
Core_1_L2C_rq_to_cache 9191515
Core_1_L2C_rq_full 0

Core_1_L2C_wq_access 1131336
Core_1_L2C_wq_forward 760
Core_1_L2C_wq_merged 0
Core_1_L2C_wq_to_cache 1131336
Core_1_L2C_wq_full 0

Core_1_L2C_pq_access 27552059
Core_1_L2C_pq_forward 0
Core_1_L2C_pq_merged 0
Core_1_L2C_pq_to_cache 27552048
Core_1_L2C_pq_full 0

Core_1_L2C_acc_epochs 178346
Core_1_L2C_acc_level_0 66620
Core_1_L2C_acc_level_1 48390
Core_1_L2C_acc_level_2 21913
Core_1_L2C_acc_level_3 11799
Core_1_L2C_acc_level_4 6944
Core_1_L2C_acc_level_5 5231
Core_1_L2C_acc_level_6 3089
Core_1_L2C_acc_level_7 2436
Core_1_L2C_acc_level_8 1833
Core_1_L2C_acc_level_9 10091

Core_1_LLC_total_access 7414668
Core_1_LLC_total_hit 6187990
Core_1_LLC_total_miss 1226678
Core_1_LLC_loads 1415452
Core_1_LLC_load_hit 1226345
Core_1_LLC_load_miss 189107
Core_1_LLC_RFOs 386926
Core_1_LLC_RFO_hit 236184
Core_1_LLC_RFO_miss 150742
Core_1_LLC_prefetches 4973164
Core_1_LLC_prefetch_hit 4099574
Core_1_LLC_prefetch_miss 873590
Core_1_LLC_writebacks 639126
Core_1_LLC_writeback_hit 625887
Core_1_LLC_writeback_miss 13239
Core_1_LLC_prefetch_requested 0
Core_1_LLC_prefetch_dropped 0
Core_1_LLC_prefetch_issued 0
Core_1_LLC_prefetch_filled 5114587
Core_1_LLC_prefetch_useful 192968
Core_1_LLC_prefetch_useless 4835285
Core_1_LLC_prefetch_late 0
Core_1_LLC_average_miss_latency 749.52740

Core_1_LLC_rq_access 8050745
Core_1_LLC_rq_forward 0
Core_1_LLC_rq_merged 0
Core_1_LLC_rq_to_cache 8049640
Core_1_LLC_rq_full 0

Core_1_LLC_wq_access 2807967
Core_1_LLC_wq_forward 1371
Core_1_LLC_wq_merged 0
Core_1_LLC_wq_to_cache 2807967
Core_1_LLC_wq_full 0

Core_1_LLC_pq_access 34025989
Core_1_LLC_pq_forward 0
Core_1_LLC_pq_merged 0
Core_1_LLC_pq_to_cache 34025720
Core_1_LLC_pq_full 0

Core_1_LLC_acc_epochs 713084
Core_1_LLC_acc_level_0 659601
Core_1_LLC_acc_level_1 26799
Core_1_LLC_acc_level_2 11612
Core_1_LLC_acc_level_3 3681
Core_1_LLC_acc_level_4 1058
Core_1_LLC_acc_level_5 5335
Core_1_LLC_acc_level_6 777
Core_1_LLC_acc_level_7 816
Core_1_LLC_acc_level_8 333
Core_1_LLC_acc_level_9 3072

Core_1_major_page_fault 0
Core_1_minor_page_fault 17503

Core_2_instructions 150000002
Core_2_cycles 591406522
Core_2_IPC 0.25363

Core_2_branch_prediction_accuracy 97.32704
Core_2_branch_MPKI 4.20782
Core_2_average_ROB_occupancy_at_mispredict 87.02865

Core_2_L1D_total_access 18963830
Core_2_L1D_total_hit 16584470
Core_2_L1D_total_miss 2379360
Core_2_L1D_loads 12359106
Core_2_L1D_load_hit 10508516
Core_2_L1D_load_miss 1850590
Core_2_L1D_RFOs 6604724
Core_2_L1D_RFO_hit 6075954
Core_2_L1D_RFO_miss 528770
Core_2_L1D_prefetches 0
Core_2_L1D_prefetch_hit 0
Core_2_L1D_prefetch_miss 0
Core_2_L1D_writebacks 0
Core_2_L1D_writeback_hit 0
Core_2_L1D_writeback_miss 0
Core_2_L1D_prefetch_requested 0
Core_2_L1D_prefetch_dropped 0
Core_2_L1D_prefetch_issued 0
Core_2_L1D_prefetch_filled 0
Core_2_L1D_prefetch_useful 0
Core_2_L1D_prefetch_useless 0
Core_2_L1D_prefetch_late 0
Core_2_L1D_average_miss_latency 115.83555

Core_2_L1D_rq_access 29929098
Core_2_L1D_rq_forward 0
Core_2_L1D_rq_merged 13476406
Core_2_L1D_rq_to_cache 16448282
Core_2_L1D_rq_full 0

Core_2_L1D_wq_access 9819643
Core_2_L1D_wq_forward 4410
Core_2_L1D_wq_merged 30337
Core_2_L1D_wq_to_cache 9789306
Core_2_L1D_wq_full 0

Core_2_L1D_pq_access 0
Core_2_L1D_pq_forward 0
Core_2_L1D_pq_merged 0
Core_2_L1D_pq_to_cache 0
Core_2_L1D_pq_full 0

Core_2_L1D_acc_epochs 188127
Core_2_L1D_acc_level_0 188127
Core_2_L1D_acc_level_1 0
Core_2_L1D_acc_level_2 0
Core_2_L1D_acc_level_3 0
Core_2_L1D_acc_level_4 0
Core_2_L1D_acc_level_5 0
Core_2_L1D_acc_level_6 0
Core_2_L1D_acc_level_7 0
Core_2_L1D_acc_level_8 0
Core_2_L1D_acc_level_9 0

Core_2_L1I_total_access 28829220
Core_2_L1I_total_hit 25465041
Core_2_L1I_total_miss 3364179
Core_2_L1I_loads 28829220
Core_2_L1I_load_hit 25465041
Core_2_L1I_load_miss 3364179
Core_2_L1I_RFOs 0
Core_2_L1I_RFO_hit 0
Core_2_L1I_RFO_miss 0
Core_2_L1I_prefetches 0
Core_2_L1I_prefetch_hit 0
Core_2_L1I_prefetch_miss 0
Core_2_L1I_writebacks 0
Core_2_L1I_writeback_hit 0
Core_2_L1I_writeback_miss 0
Core_2_L1I_prefetch_requested 0
Core_2_L1I_prefetch_dropped 0
Core_2_L1I_prefetch_issued 0
Core_2_L1I_prefetch_filled 0
Core_2_L1I_prefetch_useful 0
Core_2_L1I_prefetch_useless 0
Core_2_L1I_prefetch_late 0
Core_2_L1I_average_miss_latency 142.40345

Core_2_L1I_rq_access 187157234
Core_2_L1I_rq_forward 0
Core_2_L1I_rq_merged 149198173
Core_2_L1I_rq_to_cache 37959061
Core_2_L1I_rq_full 0

Core_2_L1I_wq_access 0
Core_2_L1I_wq_forward 0
Core_2_L1I_wq_merged 0
Core_2_L1I_wq_to_cache 0
Core_2_L1I_wq_full 0

Core_2_L1I_pq_access 0
Core_2_L1I_pq_forward 0
Core_2_L1I_pq_merged 0
Core_2_L1I_pq_to_cache 0
Core_2_L1I_pq_full 0

Core_2_L1I_acc_epochs 188127
Core_2_L1I_acc_level_0 188127
Core_2_L1I_acc_level_1 0
Core_2_L1I_acc_level_2 0
Core_2_L1I_acc_level_3 0
Core_2_L1I_acc_level_4 0
Core_2_L1I_acc_level_5 0
Core_2_L1I_acc_level_6 0
Core_2_L1I_acc_level_7 0
Core_2_L1I_acc_level_8 0
Core_2_L1I_acc_level_9 0

Core_2_L2C_total_access 19236232
Core_2_L2C_total_hit 9808595
Core_2_L2C_total_miss 9427637
Core_2_L2C_loads 5214539
Core_2_L2C_load_hit 3305266
Core_2_L2C_load_miss 1909273
Core_2_L2C_RFOs 528506
Core_2_L2C_RFO_hit 211622
Core_2_L2C_RFO_miss 316884
Core_2_L2C_prefetches 12597419
Core_2_L2C_prefetch_hit 5623543
Core_2_L2C_prefetch_miss 6973876
Core_2_L2C_writebacks 895768
Core_2_L2C_writeback_hit 668164
Core_2_L2C_writeback_miss 227604
Core_2_L2C_prefetch_requested 21858009
Core_2_L2C_prefetch_dropped 2296670
Core_2_L2C_prefetch_issued 19561339
Core_2_L2C_prefetch_filled 11052523
Core_2_L2C_prefetch_useful 1885196
Core_2_L2C_prefetch_useless 9164767
Core_2_L2C_prefetch_late 69451
Core_2_L2C_average_miss_latency 141.05158

Core_2_L2C_rq_access 6698937
Core_2_L2C_rq_forward 0
Core_2_L2C_rq_merged 0
Core_2_L2C_rq_to_cache 6698375
Core_2_L2C_rq_full 0

Core_2_L2C_wq_access 1037322
Core_2_L2C_wq_forward 594
Core_2_L2C_wq_merged 0
Core_2_L2C_wq_to_cache 1037322
Core_2_L2C_wq_full 0

Core_2_L2C_pq_access 19561339
Core_2_L2C_pq_forward 0
Core_2_L2C_pq_merged 0
Core_2_L2C_pq_to_cache 19561307
Core_2_L2C_pq_full 0

Core_2_L2C_acc_epochs 188127
Core_2_L2C_acc_level_0 53754
Core_2_L2C_acc_level_1 51890
Core_2_L2C_acc_level_2 17921
Core_2_L2C_acc_level_3 10173
Core_2_L2C_acc_level_4 7703
Core_2_L2C_acc_level_5 6336
Core_2_L2C_acc_level_6 5129
Core_2_L2C_acc_level_7 4493
Core_2_L2C_acc_level_8 3724
Core_2_L2C_acc_level_9 27004

Core_2_LLC_total_access 9858634
Core_2_LLC_total_hit 8741072
Core_2_LLC_total_miss 1117562
Core_2_LLC_loads 1851016
Core_2_LLC_load_hit 1727851
Core_2_LLC_load_miss 123165
Core_2_LLC_RFOs 316190
Core_2_LLC_RFO_hit 235941
Core_2_LLC_RFO_miss 80249
Core_2_LLC_prefetches 7032435
Core_2_LLC_prefetch_hit 6125282
Core_2_LLC_prefetch_miss 907153
Core_2_LLC_writebacks 658993
Core_2_LLC_writeback_hit 651998
Core_2_LLC_writeback_miss 6995
Core_2_LLC_prefetch_requested 0
Core_2_LLC_prefetch_dropped 0
Core_2_LLC_prefetch_issued 0
Core_2_LLC_prefetch_filled 5114587
Core_2_LLC_prefetch_useful 192968
Core_2_LLC_prefetch_useless 4835285
Core_2_LLC_prefetch_late 0
Core_2_LLC_average_miss_latency 822.70941

Core_2_LLC_rq_access 8050745
Core_2_LLC_rq_forward 0
Core_2_LLC_rq_merged 0
Core_2_LLC_rq_to_cache 8049640
Core_2_LLC_rq_full 0

Core_2_LLC_wq_access 2807967
Core_2_LLC_wq_forward 1371
Core_2_LLC_wq_merged 0
Core_2_LLC_wq_to_cache 2807967
Core_2_LLC_wq_full 0

Core_2_LLC_pq_access 34025989
Core_2_LLC_pq_forward 0
Core_2_LLC_pq_merged 0
Core_2_LLC_pq_to_cache 34025720
Core_2_LLC_pq_full 0

Core_2_LLC_acc_epochs 713084
Core_2_LLC_acc_level_0 659601
Core_2_LLC_acc_level_1 26799
Core_2_LLC_acc_level_2 11612
Core_2_LLC_acc_level_3 3681
Core_2_LLC_acc_level_4 1058
Core_2_LLC_acc_level_5 5335
Core_2_LLC_acc_level_6 777
Core_2_LLC_acc_level_7 816
Core_2_LLC_acc_level_8 333
Core_2_LLC_acc_level_9 3072

Core_2_major_page_fault 0
Core_2_minor_page_fault 15290

Core_3_instructions 150000003
Core_3_cycles 704679017
Core_3_IPC 0.21286

Core_3_branch_prediction_accuracy 97.21748
Core_3_branch_MPKI 5.20920
Core_3_average_ROB_occupancy_at_mispredict 86.05631

Core_3_L1D_total_access 24817580
Core_3_L1D_total_hit 21846649
Core_3_L1D_total_miss 2970931
Core_3_L1D_loads 14098261
Core_3_L1D_load_hit 11955160
Core_3_L1D_load_miss 2143101
Core_3_L1D_RFOs 10719319
Core_3_L1D_RFO_hit 9891489
Core_3_L1D_RFO_miss 827830
Core_3_L1D_prefetches 0
Core_3_L1D_prefetch_hit 0
Core_3_L1D_prefetch_miss 0
Core_3_L1D_writebacks 0
Core_3_L1D_writeback_hit 0
Core_3_L1D_writeback_miss 0
Core_3_L1D_prefetch_requested 0
Core_3_L1D_prefetch_dropped 0
Core_3_L1D_prefetch_issued 0
Core_3_L1D_prefetch_filled 0
Core_3_L1D_prefetch_useful 0
Core_3_L1D_prefetch_useless 0
Core_3_L1D_prefetch_late 0
Core_3_L1D_average_miss_latency 101.05165

Core_3_L1D_rq_access 26504879
Core_3_L1D_rq_forward 0
Core_3_L1D_rq_merged 11992829
Core_3_L1D_rq_to_cache 14509088
Core_3_L1D_rq_full 0

Core_3_L1D_wq_access 13699392
Core_3_L1D_wq_forward 2962
Core_3_L1D_wq_merged 39493
Core_3_L1D_wq_to_cache 13659899
Core_3_L1D_wq_full 0

Core_3_L1D_pq_access 0
Core_3_L1D_pq_forward 0
Core_3_L1D_pq_merged 0
Core_3_L1D_pq_to_cache 0
Core_3_L1D_pq_full 0

Core_3_L1D_acc_epochs 174751
Core_3_L1D_acc_level_0 174751
Core_3_L1D_acc_level_1 0
Core_3_L1D_acc_level_2 0
Core_3_L1D_acc_level_3 0
Core_3_L1D_acc_level_4 0
Core_3_L1D_acc_level_5 0
Core_3_L1D_acc_level_6 0
Core_3_L1D_acc_level_7 0
Core_3_L1D_acc_level_8 0
Core_3_L1D_acc_level_9 0

Core_3_L1I_total_access 32659340
Core_3_L1I_total_hit 26416366
Core_3_L1I_total_miss 6242974
Core_3_L1I_loads 32659340
Core_3_L1I_load_hit 26416366
Core_3_L1I_load_miss 6242974
Core_3_L1I_RFOs 0
Core_3_L1I_RFO_hit 0
Core_3_L1I_RFO_miss 0
Core_3_L1I_prefetches 0
Core_3_L1I_prefetch_hit 0
Core_3_L1I_prefetch_miss 0
Core_3_L1I_writebacks 0
Core_3_L1I_writeback_hit 0
Core_3_L1I_writeback_miss 0
Core_3_L1I_prefetch_requested 0
Core_3_L1I_prefetch_dropped 0
Core_3_L1I_prefetch_issued 0
Core_3_L1I_prefetch_filled 0
Core_3_L1I_prefetch_useful 0
Core_3_L1I_prefetch_useless 0
Core_3_L1I_prefetch_late 0
Core_3_L1I_average_miss_latency 95.80954

Core_3_L1I_rq_access 149999985
Core_3_L1I_rq_forward 0
Core_3_L1I_rq_merged 113616347
Core_3_L1I_rq_to_cache 36383638
Core_3_L1I_rq_full 0

Core_3_L1I_wq_access 0
Core_3_L1I_wq_forward 0
Core_3_L1I_wq_merged 0
Core_3_L1I_wq_to_cache 0
Core_3_L1I_wq_full 0

Core_3_L1I_pq_access 0
Core_3_L1I_pq_forward 0
Core_3_L1I_pq_merged 0
Core_3_L1I_pq_to_cache 0
Core_3_L1I_pq_full 0

Core_3_L1I_acc_epochs 174751
Core_3_L1I_acc_level_0 174751
Core_3_L1I_acc_level_1 0
Core_3_L1I_acc_level_2 0
Core_3_L1I_acc_level_3 0
Core_3_L1I_acc_level_4 0
Core_3_L1I_acc_level_5 0
Core_3_L1I_acc_level_6 0
Core_3_L1I_acc_level_7 0
Core_3_L1I_acc_level_8 0
Core_3_L1I_acc_level_9 0

Core_3_L2C_total_access 30466926
Core_3_L2C_total_hit 23315554
Core_3_L2C_total_miss 7151372
Core_3_L2C_loads 8385851
Core_3_L2C_load_hit 6907930
Core_3_L2C_load_miss 1477921
Core_3_L2C_RFOs 827379
Core_3_L2C_RFO_hit 407784
Core_3_L2C_RFO_miss 419595
Core_3_L2C_prefetches 20104406
Core_3_L2C_prefetch_hit 15042203
Core_3_L2C_prefetch_miss 5062203
Core_3_L2C_writebacks 1149290
Core_3_L2C_writeback_hit 957637
Core_3_L2C_writeback_miss 191653
Core_3_L2C_prefetch_requested 31964608
Core_3_L2C_prefetch_dropped 4133856
Core_3_L2C_prefetch_issued 27830752
Core_3_L2C_prefetch_filled 7554812
Core_3_L2C_prefetch_useful 888923
Core_3_L2C_prefetch_useless 6663221
Core_3_L2C_prefetch_late 70045
Core_3_L2C_average_miss_latency 122.35176

Core_3_L2C_rq_access 9213905
Core_3_L2C_rq_forward 0
Core_3_L2C_rq_merged 0
Core_3_L2C_rq_to_cache 9213230
Core_3_L2C_rq_full 0

Core_3_L2C_wq_access 1149291
Core_3_L2C_wq_forward 690
Core_3_L2C_wq_merged 0
Core_3_L2C_wq_to_cache 1149291
Core_3_L2C_wq_full 0

Core_3_L2C_pq_access 27830752
Core_3_L2C_pq_forward 0
Core_3_L2C_pq_merged 0
Core_3_L2C_pq_to_cache 27830737
Core_3_L2C_pq_full 0

Core_3_L2C_acc_epochs 174751
Core_3_L2C_acc_level_0 68028
Core_3_L2C_acc_level_1 46803
Core_3_L2C_acc_level_2 20893
Core_3_L2C_acc_level_3 11177
Core_3_L2C_acc_level_4 6547
Core_3_L2C_acc_level_5 5001
Core_3_L2C_acc_level_6 3243
Core_3_L2C_acc_level_7 2325
Core_3_L2C_acc_level_8 1863
Core_3_L2C_acc_level_9 8871

Core_3_LLC_total_access 7648778
Core_3_LLC_total_hit 6447120
Core_3_LLC_total_miss 1201658
Core_3_LLC_loads 1410387
Core_3_LLC_load_hit 1219680
Core_3_LLC_load_miss 190707
Core_3_LLC_RFOs 416804
Core_3_LLC_RFO_hit 245851
Core_3_LLC_RFO_miss 170953
Core_3_LLC_prefetches 5132169
Core_3_LLC_prefetch_hit 4307157
Core_3_LLC_prefetch_miss 825012
Core_3_LLC_writebacks 689418
Core_3_LLC_writeback_hit 674432
Core_3_LLC_writeback_miss 14986
Core_3_LLC_prefetch_requested 0
Core_3_LLC_prefetch_dropped 0
Core_3_LLC_prefetch_issued 0
Core_3_LLC_prefetch_filled 5114587
Core_3_LLC_prefetch_useful 192968
Core_3_LLC_prefetch_useless 4835285
Core_3_LLC_prefetch_late 0
Core_3_LLC_average_miss_latency 765.13349

Core_3_LLC_rq_access 8050745
Core_3_LLC_rq_forward 0
Core_3_LLC_rq_merged 0
Core_3_LLC_rq_to_cache 8049640
Core_3_LLC_rq_full 0

Core_3_LLC_wq_access 2807967
Core_3_LLC_wq_forward 1371
Core_3_LLC_wq_merged 0
Core_3_LLC_wq_to_cache 2807967
Core_3_LLC_wq_full 0

Core_3_LLC_pq_access 34025989
Core_3_LLC_pq_forward 0
Core_3_LLC_pq_merged 0
Core_3_LLC_pq_to_cache 34025720
Core_3_LLC_pq_full 0

Core_3_LLC_acc_epochs 713084
Core_3_LLC_acc_level_0 659601
Core_3_LLC_acc_level_1 26799
Core_3_LLC_acc_level_2 11612
Core_3_LLC_acc_level_3 3681
Core_3_LLC_acc_level_4 1058
Core_3_LLC_acc_level_5 5335
Core_3_LLC_acc_level_6 777
Core_3_LLC_acc_level_7 816
Core_3_LLC_acc_level_8 333
Core_3_LLC_acc_level_9 3072

Core_3_major_page_fault 0
Core_3_minor_page_fault 17867

dspatch.pb.lookup 11166262
dspatch.pb.hit 7740790
dspatch.pb.evict 3425408
dspatch.pb.insert 3425472

dspatch.gen_pref.called 3425472
dspatch.gen_pref.reset 16656
dspatch.gen_pref.total 32655654

dspatch.dyn_selection.called 3425472
dspatch.dyn_selection.none 91
dspatch.dyn_selection.accp_reason1 16656
dspatch.dyn_selection.accp_reason2 60815
dspatch.dyn_selection.covp_reason1 1
dspatch.dyn_selection.covp_reason2 3347909

dspatch.spt.called 3425408
dspatch.spt.or_count_incr 534336
dspatch.spt.measure_covP_incr 2194806
dspatch.spt.bmp_cov_reset 75294
dspatch.spt.bmp_cov_update 11256
dspatch.spt.measure_accP_incr 654823
dspatch.spt.measure_accP_decr 2770585
dspatch.spt.bmp_acc_update 3425408

dspatch.pref_buffer.spilled 332859
dspatch.pref_buffer.buffered 32322795
dspatch.pref_buffer.issued 32322795

dspatch.bw.called 2852333
dspatch.bw.bw_histogram 2490807,258974,78552,24000,

dspatch.pb.lookup 11183948
dspatch.pb.hit 7734678
dspatch.pb.evict 3449206
dspatch.pb.insert 3449270

dspatch.gen_pref.called 3449270
dspatch.gen_pref.reset 17747
dspatch.gen_pref.total 31884075

dspatch.dyn_selection.called 3449270
dspatch.dyn_selection.none 116
dspatch.dyn_selection.accp_reason1 17747
dspatch.dyn_selection.accp_reason2 63107
dspatch.dyn_selection.covp_reason1 1
dspatch.dyn_selection.covp_reason2 3368299

dspatch.spt.called 3449206
dspatch.spt.or_count_incr 540195
dspatch.spt.measure_covP_incr 2145412
dspatch.spt.bmp_cov_reset 77414
dspatch.spt.bmp_cov_update 16297
dspatch.spt.measure_accP_incr 657296
dspatch.spt.measure_accP_decr 2791910
dspatch.spt.bmp_acc_update 3449206

dspatch.pref_buffer.spilled 272512
dspatch.pref_buffer.buffered 31611563
dspatch.pref_buffer.issued 31611546

dspatch.bw.called 2852333
dspatch.bw.bw_histogram 2490807,258974,78552,24000,

dspatch.pb.lookup 7841686
dspatch.pb.hit 5527293
dspatch.pb.evict 2314329
dspatch.pb.insert 2314393

dspatch.gen_pref.called 2314393
dspatch.gen_pref.reset 12474
dspatch.gen_pref.total 22115277

dspatch.dyn_selection.called 2314393
dspatch.dyn_selection.none 121
dspatch.dyn_selection.accp_reason1 12474
dspatch.dyn_selection.accp_reason2 38433
dspatch.dyn_selection.covp_reason1 37
dspatch.dyn_selection.covp_reason2 2263328

dspatch.spt.called 2314329
dspatch.spt.or_count_incr 400964
dspatch.spt.measure_covP_incr 1624789
dspatch.spt.bmp_cov_reset 66832
dspatch.spt.bmp_cov_update 6994
dspatch.spt.measure_accP_incr 491657
dspatch.spt.measure_accP_decr 1822672
dspatch.spt.bmp_acc_update 2314329

dspatch.pref_buffer.spilled 257245
dspatch.pref_buffer.buffered 21858032
dspatch.pref_buffer.issued 21858009

dspatch.bw.called 2852333
dspatch.bw.bw_histogram 2490807,258974,78552,24000,

dspatch.pb.lookup 11125207
dspatch.pb.hit 7697749
dspatch.pb.evict 3427394
dspatch.pb.insert 3427458

dspatch.gen_pref.called 3427458
dspatch.gen_pref.reset 17065
dspatch.gen_pref.total 32466380

dspatch.dyn_selection.called 3427458
dspatch.dyn_selection.none 75
dspatch.dyn_selection.accp_reason1 17065
dspatch.dyn_selection.accp_reason2 63741
dspatch.dyn_selection.covp_reason1 0
dspatch.dyn_selection.covp_reason2 3346577

dspatch.spt.called 3427394
dspatch.spt.or_count_incr 538012
dspatch.spt.measure_covP_incr 2172273
dspatch.spt.bmp_cov_reset 74464
dspatch.spt.bmp_cov_update 8635
dspatch.spt.measure_accP_incr 654848
dspatch.spt.measure_accP_decr 2772546
dspatch.spt.bmp_acc_update 3427394

dspatch.pref_buffer.spilled 501764
dspatch.pref_buffer.buffered 31964616
dspatch.pref_buffer.issued 31964608

dspatch.bw.called 2852333
dspatch.bw.bw_histogram 2490807,258974,78552,24000,

Channel_0_RQ_row_buffer_hit 789879
Channel_0_RQ_row_buffer_miss 1782769
Channel_0_WQ_row_buffer_hit 54630
Channel_0_WQ_row_buffer_miss 334279
Channel_0_WQ_full 0
Channel_0_dbus_congested 1297972

Channel_1_RQ_row_buffer_hit 794434
Channel_1_RQ_row_buffer_miss 1776027
Channel_1_WQ_row_buffer_hit 54606
Channel_1_WQ_row_buffer_miss 332595
Channel_1_WQ_full 0
Channel_1_dbus_congested 1299278

avg_congested_cycle 10

DRAM_bw_pochs 2852333
DRAM_bw_level_0 2490807
DRAM_bw_level_1 258974
DRAM_bw_level_2 78552
DRAM_bw_level_3 24000
