*************************************************
   ChampSim Multicore Out-of-Order Simulator
   Last compiled: Mar 31 2025 20:14:32
*************************************************
parsing config file: /data3/config/nopref.ini

trace_0 /data3/STREAMING/traces/streaming_phase0_core0.trace.xz
trace_1 /data3/STREAMING/traces/streaming_phase0_core1.trace.xz
trace_2 /data3/STREAMING/traces/streaming_phase0_core2.trace.xz
trace_3 /data3/STREAMING/traces/streaming_phase0_core3.trace.xz
adding L2C_PREFETCHER: NONE
adding L2C_PREFETCHER: NONE
adding L2C_PREFETCHER: NONE
adding L2C_PREFETCHER: NONE
Initialize SHIP state
warmup_instructions 50000000
simulation_instructions 150000000
champsim_seed 8846
measure_ipc 0
measure_ipc_epoch 1000
measure_dram_bw 1
measure_dram_bw_epoch 256
measure_cache_acc 1
measure_cache_acc_epoch 1024
l1d_perfect 0
l2c_perfect 0
llc_perfect 0
l1d_semi_perfect 0
l2c_semi_perfect 0
llc_semi_perfect 0
semi_perfect_cache_page_buffer_size 64

num_cpus 4
cpu_freq 4000
dram_io_freq 2400
page_size 4096
block_size 64
max_read_per_cycle 8
max_fill_per_cycle 1
dram_channels 2
log2_dram_channels 1
dram_ranks 1
dram_banks 8
dram_rows 65536
dram_columns 128
dram_row_size 8
dram_size 8192
dram_pages 2097152

fetch_width 6
decode_width 6
exec_width 4
lq_width 2
sq_width 2
retire_width 4
scheduler_size 128
branch_mispredict_penalty 20
rob_size 256
lq_size 72
sq_size 56
num_instr_destinations_sparc 4
num_instr_destinations 2
num_instr_sources 4

itlb_set 16
itlb_way 8
itlb_rq_size 16
itlb_wq_size 16
itlb_pq_size 0
itlb_mshr_size 8
itlb_latency 1

dtlb_set 16
dtlb_way 4
dtlb_rq_size 16
dtlb_wq_size 16
dtlb_pq_size 0
dtlb_mshr_size 8
dtlb_latency 1

stlb_set 128
stlb_way 12
stlb_rq_size 32
stlb_wq_size 32
stlb_pq_size 0
stlb_mshr_size 16
stlb_latency 8

l1i_size 32
l1i_set 64
l1i_way 8
l1i_rq_size 64
l1i_wq_size 64
l1i_pq_size 8
l1i_mshr_size 8
l1i_latency 1

l1d_size 32
l1d_set 64
l1d_way 8
l1d_rq_size 64
l1d_wq_size 64
l1d_pq_size 8
l1d_mshr_size 16
l1d_latency 4

l2c_size 256
l2c_set 512
l2c_way 8
l2c_rq_size 32
l2c_wq_size 32
l2c_pq_size 32
l2c_mshr_size 32
l2c_latency 10

llc_size 8192
llc_set 8192
llc_way 16
llc_rq_size 128
llc_wq_size 128
llc_pq_size 128
llc_mshr_size 256
llc_latency 20

dram_channel_width 8
dram_wq_size 64
dram_rq_size 64
tRP 15
tRCD 15
tCAS 12.5
dram_dbus_turn_around_time 30
dram_write_high_wm 56
dram_write_low_wm 48
min_dram_writes_per_switch 16
dram_mtps 2400
dram_dbus_return_time 13


Heartbeat CPU  2 instructions:    1000002 cycles:     304896 heartbeat IPC: 3.27981 cumulative IPC: 3.27981 (Simulation time: 0 hr 0 min 5 sec) 
Heartbeat CPU  1 instructions:    1000002 cycles:     324074 heartbeat IPC: 3.08572 cumulative IPC: 3.08572 (Simulation time: 0 hr 0 min 5 sec) 
Heartbeat CPU  0 instructions:    1000002 cycles:     325694 heartbeat IPC: 3.07037 cumulative IPC: 3.07037 (Simulation time: 0 hr 0 min 5 sec) 
Heartbeat CPU  3 instructions:    1000000 cycles:     346419 heartbeat IPC: 2.88668 cumulative IPC: 2.88668 (Simulation time: 0 hr 0 min 6 sec) 
Heartbeat CPU  2 instructions:    2000001 cycles:     587068 heartbeat IPC: 3.54393 cumulative IPC: 3.40676 (Simulation time: 0 hr 0 min 10 sec) 
Heartbeat CPU  1 instructions:    2000000 cycles:     612814 heartbeat IPC: 3.46332 cumulative IPC: 3.26363 (Simulation time: 0 hr 0 min 11 sec) 
Heartbeat CPU  0 instructions:    2000003 cycles:     615760 heartbeat IPC: 3.44749 cumulative IPC: 3.24802 (Simulation time: 0 hr 0 min 11 sec) 
Heartbeat CPU  3 instructions:    2000001 cycles:     635711 heartbeat IPC: 3.45672 cumulative IPC: 3.14609 (Simulation time: 0 hr 0 min 11 sec) 
Heartbeat CPU  2 instructions:    3000000 cycles:     853959 heartbeat IPC: 3.74684 cumulative IPC: 3.51305 (Simulation time: 0 hr 0 min 15 sec) 
Heartbeat CPU  1 instructions:    3000003 cycles:     887012 heartbeat IPC: 3.64701 cumulative IPC: 3.38214 (Simulation time: 0 hr 0 min 16 sec) 
Heartbeat CPU  0 instructions:    3000001 cycles:     896133 heartbeat IPC: 3.56667 cumulative IPC: 3.34772 (Simulation time: 0 hr 0 min 16 sec) 
Heartbeat CPU  3 instructions:    3000000 cycles:     911840 heartbeat IPC: 3.62149 cumulative IPC: 3.29005 (Simulation time: 0 hr 0 min 16 sec) 
Heartbeat CPU  2 instructions:    4000000 cycles:    1129876 heartbeat IPC: 3.62428 cumulative IPC: 3.54021 (Simulation time: 0 hr 0 min 21 sec) 
Heartbeat CPU  1 instructions:    4000000 cycles:    1154816 heartbeat IPC: 3.73406 cumulative IPC: 3.46376 (Simulation time: 0 hr 0 min 21 sec) 
Heartbeat CPU  0 instructions:    4000000 cycles:    1162439 heartbeat IPC: 3.75507 cumulative IPC: 3.44104 (Simulation time: 0 hr 0 min 21 sec) 
Heartbeat CPU  3 instructions:    4000000 cycles:    1188576 heartbeat IPC: 3.61355 cumulative IPC: 3.36537 (Simulation time: 0 hr 0 min 22 sec) 
Heartbeat CPU  2 instructions:    5000000 cycles:    1416107 heartbeat IPC: 3.49368 cumulative IPC: 3.53081 (Simulation time: 0 hr 0 min 26 sec) 
Heartbeat CPU  1 instructions:    5000001 cycles:    1424177 heartbeat IPC: 3.71249 cumulative IPC: 3.51080 (Simulation time: 0 hr 0 min 26 sec) 
Heartbeat CPU  0 instructions:    5000001 cycles:    1445580 heartbeat IPC: 3.53181 cumulative IPC: 3.45882 (Simulation time: 0 hr 0 min 27 sec) 
Heartbeat CPU  3 instructions:    5000003 cycles:    1621359 heartbeat IPC: 2.31063 cumulative IPC: 3.08383 (Simulation time: 0 hr 0 min 30 sec) 
Heartbeat CPU  2 instructions:    6000003 cycles:    1685838 heartbeat IPC: 3.70741 cumulative IPC: 3.55906 (Simulation time: 0 hr 0 min 31 sec) 
Heartbeat CPU  1 instructions:    6000000 cycles:    1688778 heartbeat IPC: 3.77927 cumulative IPC: 3.55286 (Simulation time: 0 hr 0 min 31 sec) 
Heartbeat CPU  0 instructions:    6000003 cycles:    1723579 heartbeat IPC: 3.59714 cumulative IPC: 3.48113 (Simulation time: 0 hr 0 min 32 sec) 
Heartbeat CPU  2 instructions:    7000000 cycles:    1954586 heartbeat IPC: 3.72095 cumulative IPC: 3.58132 (Simulation time: 0 hr 0 min 36 sec) 
Heartbeat CPU  1 instructions:    7000003 cycles:    1967021 heartbeat IPC: 3.59399 cumulative IPC: 3.55868 (Simulation time: 0 hr 0 min 36 sec) 
Heartbeat CPU  0 instructions:    7000000 cycles:    1997705 heartbeat IPC: 3.64795 cumulative IPC: 3.50402 (Simulation time: 0 hr 0 min 37 sec) 
Heartbeat CPU  3 instructions:    6000001 cycles:    2078234 heartbeat IPC: 2.18878 cumulative IPC: 2.88707 (Simulation time: 0 hr 0 min 38 sec) 
Heartbeat CPU  2 instructions:    8000000 cycles:    2239709 heartbeat IPC: 3.50726 cumulative IPC: 3.57189 (Simulation time: 0 hr 0 min 41 sec) 
Heartbeat CPU  1 instructions:    8000000 cycles:    2260591 heartbeat IPC: 3.40633 cumulative IPC: 3.53890 (Simulation time: 0 hr 0 min 42 sec) 
Heartbeat CPU  0 instructions:    8000000 cycles:    2274007 heartbeat IPC: 3.61923 cumulative IPC: 3.51802 (Simulation time: 0 hr 0 min 42 sec) 
Heartbeat CPU  3 instructions:    7000000 cycles:    2456734 heartbeat IPC: 2.64201 cumulative IPC: 2.84931 (Simulation time: 0 hr 0 min 45 sec) 
Heartbeat CPU  2 instructions:    9000002 cycles:    2518386 heartbeat IPC: 3.58839 cumulative IPC: 3.57372 (Simulation time: 0 hr 0 min 46 sec) 
Heartbeat CPU  1 instructions:    9000000 cycles:    2541113 heartbeat IPC: 3.56478 cumulative IPC: 3.54176 (Simulation time: 0 hr 0 min 46 sec) 
Heartbeat CPU  3 instructions:    8000000 cycles:    2737158 heartbeat IPC: 3.56603 cumulative IPC: 2.92274 (Simulation time: 0 hr 0 min 50 sec) 
Heartbeat CPU  2 instructions:   10000001 cycles:    2811045 heartbeat IPC: 3.41694 cumulative IPC: 3.55740 (Simulation time: 0 hr 0 min 51 sec) 
Heartbeat CPU  0 instructions:    9000000 cycles:    2815805 heartbeat IPC: 1.84571 cumulative IPC: 3.19624 (Simulation time: 0 hr 0 min 51 sec) 
Heartbeat CPU  1 instructions:   10000000 cycles:    2953847 heartbeat IPC: 2.42287 cumulative IPC: 3.38542 (Simulation time: 0 hr 0 min 53 sec) 
Heartbeat CPU  3 instructions:    9000001 cycles:    3003956 heartbeat IPC: 3.74816 cumulative IPC: 2.99605 (Simulation time: 0 hr 0 min 53 sec) 
Heartbeat CPU  2 instructions:   11000002 cycles:    3110018 heartbeat IPC: 3.34479 cumulative IPC: 3.53696 (Simulation time: 0 hr 0 min 55 sec) 
Heartbeat CPU  3 instructions:   10000001 cycles:    3285403 heartbeat IPC: 3.55307 cumulative IPC: 3.04377 (Simulation time: 0 hr 0 min 58 sec) 
Heartbeat CPU  0 instructions:   10000000 cycles:    3331709 heartbeat IPC: 1.93835 cumulative IPC: 3.00146 (Simulation time: 0 hr 0 min 58 sec) 
Heartbeat CPU  2 instructions:   12000000 cycles:    3461957 heartbeat IPC: 2.84140 cumulative IPC: 3.46625 (Simulation time: 0 hr 1 min 0 sec) 
Heartbeat CPU  1 instructions:   11000003 cycles:    3526260 heartbeat IPC: 1.74700 cumulative IPC: 3.11945 (Simulation time: 0 hr 1 min 1 sec) 
Heartbeat CPU  3 instructions:   11000002 cycles:    3554222 heartbeat IPC: 3.71998 cumulative IPC: 3.09491 (Simulation time: 0 hr 1 min 2 sec) 
Heartbeat CPU  2 instructions:   13000000 cycles:    3755573 heartbeat IPC: 3.40581 cumulative IPC: 3.46152 (Simulation time: 0 hr 1 min 5 sec) 
Heartbeat CPU  0 instructions:   11000002 cycles:    3835932 heartbeat IPC: 1.98325 cumulative IPC: 2.86762 (Simulation time: 0 hr 1 min 6 sec) 
Heartbeat CPU  1 instructions:   12000000 cycles:    4008014 heartbeat IPC: 2.07574 cumulative IPC: 2.99400 (Simulation time: 0 hr 1 min 8 sec) 
Heartbeat CPU  2 instructions:   14000003 cycles:    4043960 heartbeat IPC: 3.46757 cumulative IPC: 3.46195 (Simulation time: 0 hr 1 min 9 sec) 
Heartbeat CPU  3 instructions:   12000000 cycles:    4108606 heartbeat IPC: 1.80380 cumulative IPC: 2.92070 (Simulation time: 0 hr 1 min 10 sec) 
Heartbeat CPU  2 instructions:   15000000 cycles:    4333343 heartbeat IPC: 3.45562 cumulative IPC: 3.46153 (Simulation time: 0 hr 1 min 13 sec) 
Heartbeat CPU  3 instructions:   13000002 cycles:    4403284 heartbeat IPC: 3.39354 cumulative IPC: 2.95234 (Simulation time: 0 hr 1 min 14 sec) 
Heartbeat CPU  0 instructions:   12000000 cycles:    4418624 heartbeat IPC: 1.71617 cumulative IPC: 2.71578 (Simulation time: 0 hr 1 min 14 sec) 
Heartbeat CPU  1 instructions:   13000003 cycles:    4549515 heartbeat IPC: 1.84672 cumulative IPC: 2.85745 (Simulation time: 0 hr 1 min 16 sec) 
Heartbeat CPU  2 instructions:   16000000 cycles:    4626272 heartbeat IPC: 3.41380 cumulative IPC: 3.45851 (Simulation time: 0 hr 1 min 18 sec) 
Heartbeat CPU  3 instructions:   14000001 cycles:    4684979 heartbeat IPC: 3.54994 cumulative IPC: 2.98827 (Simulation time: 0 hr 1 min 19 sec) 
Heartbeat CPU  2 instructions:   17000001 cycles:    4917465 heartbeat IPC: 3.43415 cumulative IPC: 3.45707 (Simulation time: 0 hr 1 min 22 sec) 
Heartbeat CPU  3 instructions:   15000001 cycles:    4954567 heartbeat IPC: 3.70936 cumulative IPC: 3.02751 (Simulation time: 0 hr 1 min 23 sec) 
Heartbeat CPU  0 instructions:   13000001 cycles:    4968466 heartbeat IPC: 1.81871 cumulative IPC: 2.61650 (Simulation time: 0 hr 1 min 23 sec) 
Heartbeat CPU  1 instructions:   14000000 cycles:    5045447 heartbeat IPC: 2.01640 cumulative IPC: 2.77478 (Simulation time: 0 hr 1 min 24 sec) 
Heartbeat CPU  2 instructions:   18000002 cycles:    5207250 heartbeat IPC: 3.45084 cumulative IPC: 3.45672 (Simulation time: 0 hr 1 min 27 sec) 
Heartbeat CPU  3 instructions:   16000000 cycles:    5223104 heartbeat IPC: 3.72388 cumulative IPC: 3.06331 (Simulation time: 0 hr 1 min 27 sec) 
Heartbeat CPU  3 instructions:   17000001 cycles:    5489893 heartbeat IPC: 3.74828 cumulative IPC: 3.09660 (Simulation time: 0 hr 1 min 32 sec) 
Heartbeat CPU  2 instructions:   19000002 cycles:    5504009 heartbeat IPC: 3.36974 cumulative IPC: 3.45203 (Simulation time: 0 hr 1 min 32 sec) 
Heartbeat CPU  1 instructions:   15000002 cycles:    5516170 heartbeat IPC: 2.12440 cumulative IPC: 2.71928 (Simulation time: 0 hr 1 min 32 sec) 
Heartbeat CPU  0 instructions:   14000001 cycles:    5541233 heartbeat IPC: 1.74591 cumulative IPC: 2.52651 (Simulation time: 0 hr 1 min 33 sec) 
Heartbeat CPU  3 instructions:   18000000 cycles:    5763697 heartbeat IPC: 3.65224 cumulative IPC: 3.12300 (Simulation time: 0 hr 1 min 36 sec) 
Heartbeat CPU  2 instructions:   20000000 cycles:    5855506 heartbeat IPC: 2.84497 cumulative IPC: 3.41559 (Simulation time: 0 hr 1 min 38 sec) 
Heartbeat CPU  1 instructions:   16000000 cycles:    5973322 heartbeat IPC: 2.18745 cumulative IPC: 2.67858 (Simulation time: 0 hr 1 min 40 sec) 
Heartbeat CPU  3 instructions:   19000000 cycles:    6040412 heartbeat IPC: 3.61383 cumulative IPC: 3.14548 (Simulation time: 0 hr 1 min 41 sec) 
Heartbeat CPU  0 instructions:   15000002 cycles:    6063840 heartbeat IPC: 1.91349 cumulative IPC: 2.47368 (Simulation time: 0 hr 1 min 41 sec) 
Heartbeat CPU  2 instructions:   21000003 cycles:    6153302 heartbeat IPC: 3.35801 cumulative IPC: 3.41280 (Simulation time: 0 hr 1 min 43 sec) 
Heartbeat CPU  3 instructions:   20000000 cycles:    6433275 heartbeat IPC: 2.54542 cumulative IPC: 3.10884 (Simulation time: 0 hr 1 min 47 sec) 
Heartbeat CPU  1 instructions:   17000003 cycles:    6446811 heartbeat IPC: 2.11199 cumulative IPC: 2.63696 (Simulation time: 0 hr 1 min 47 sec) 
Heartbeat CPU  2 instructions:   22000002 cycles:    6493171 heartbeat IPC: 2.94231 cumulative IPC: 3.38818 (Simulation time: 0 hr 1 min 48 sec) 
Heartbeat CPU  0 instructions:   16000000 cycles:    6529158 heartbeat IPC: 2.14906 cumulative IPC: 2.45055 (Simulation time: 0 hr 1 min 48 sec) 
Heartbeat CPU  2 instructions:   23000001 cycles:    6797729 heartbeat IPC: 3.28344 cumulative IPC: 3.38348 (Simulation time: 0 hr 1 min 52 sec) 
Heartbeat CPU  1 instructions:   18000001 cycles:    6935428 heartbeat IPC: 2.04659 cumulative IPC: 2.59537 (Simulation time: 0 hr 1 min 54 sec) 
Heartbeat CPU  3 instructions:   21000001 cycles:    6978432 heartbeat IPC: 1.83434 cumulative IPC: 3.00927 (Simulation time: 0 hr 1 min 54 sec) 
Heartbeat CPU  0 instructions:   17000000 cycles:    7071525 heartbeat IPC: 1.84377 cumulative IPC: 2.40401 (Simulation time: 0 hr 1 min 55 sec) 
Heartbeat CPU  1 instructions:   19000002 cycles:    7435275 heartbeat IPC: 2.00061 cumulative IPC: 2.55539 (Simulation time: 0 hr 2 min 0 sec) 
Heartbeat CPU  3 instructions:   22000002 cycles:    7504229 heartbeat IPC: 1.90188 cumulative IPC: 2.93168 (Simulation time: 0 hr 2 min 0 sec) 
Heartbeat CPU  2 instructions:   24000000 cycles:    7557446 heartbeat IPC: 1.31628 cumulative IPC: 3.17568 (Simulation time: 0 hr 2 min 1 sec) 
Heartbeat CPU  0 instructions:   18000001 cycles:    7561150 heartbeat IPC: 2.04238 cumulative IPC: 2.38059 (Simulation time: 0 hr 2 min 1 sec) 
Heartbeat CPU  1 instructions:   20000000 cycles:    7928791 heartbeat IPC: 2.02627 cumulative IPC: 2.52245 (Simulation time: 0 hr 2 min 6 sec) 
Heartbeat CPU  3 instructions:   23000003 cycles:    8015575 heartbeat IPC: 1.95562 cumulative IPC: 2.86941 (Simulation time: 0 hr 2 min 7 sec) 
Heartbeat CPU  0 instructions:   19000002 cycles:    8055979 heartbeat IPC: 2.02090 cumulative IPC: 2.35850 (Simulation time: 0 hr 2 min 7 sec) 
Heartbeat CPU  2 instructions:   25000003 cycles:    8165978 heartbeat IPC: 1.64330 cumulative IPC: 3.06148 (Simulation time: 0 hr 2 min 9 sec) 
Heartbeat CPU  1 instructions:   21000002 cycles:    8404380 heartbeat IPC: 2.10266 cumulative IPC: 2.49870 (Simulation time: 0 hr 2 min 11 sec) 
Heartbeat CPU  0 instructions:   20000000 cycles:    8521198 heartbeat IPC: 2.14952 cumulative IPC: 2.34709 (Simulation time: 0 hr 2 min 13 sec) 
Heartbeat CPU  3 instructions:   24000000 cycles:    8649449 heartbeat IPC: 1.57760 cumulative IPC: 2.77474 (Simulation time: 0 hr 2 min 15 sec) 
Heartbeat CPU  2 instructions:   26000000 cycles:    8746174 heartbeat IPC: 1.72355 cumulative IPC: 2.97273 (Simulation time: 0 hr 2 min 16 sec) 
Heartbeat CPU  1 instructions:   22000000 cycles:    8884453 heartbeat IPC: 2.08301 cumulative IPC: 2.47624 (Simulation time: 0 hr 2 min 18 sec) 
Heartbeat CPU  0 instructions:   21000003 cycles:    9051956 heartbeat IPC: 1.88410 cumulative IPC: 2.31994 (Simulation time: 0 hr 2 min 20 sec) 
Heartbeat CPU  3 instructions:   25000001 cycles:    9080729 heartbeat IPC: 2.31868 cumulative IPC: 2.75308 (Simulation time: 0 hr 2 min 20 sec) 
Heartbeat CPU  2 instructions:   27000002 cycles:    9334425 heartbeat IPC: 1.69996 cumulative IPC: 2.89252 (Simulation time: 0 hr 2 min 24 sec) 
Heartbeat CPU  1 instructions:   23000001 cycles:    9364839 heartbeat IPC: 2.08166 cumulative IPC: 2.45600 (Simulation time: 0 hr 2 min 24 sec) 
Heartbeat CPU  3 instructions:   26000000 cycles:    9523698 heartbeat IPC: 2.25749 cumulative IPC: 2.73003 (Simulation time: 0 hr 2 min 26 sec) 
Heartbeat CPU  0 instructions:   22000003 cycles:    9558361 heartbeat IPC: 1.97470 cumulative IPC: 2.30165 (Simulation time: 0 hr 2 min 27 sec) 
Heartbeat CPU  1 instructions:   24000000 cycles:    9888081 heartbeat IPC: 1.91116 cumulative IPC: 2.42716 (Simulation time: 0 hr 2 min 31 sec) 
Heartbeat CPU  2 instructions:   28000000 cycles:    9889160 heartbeat IPC: 1.80266 cumulative IPC: 2.83138 (Simulation time: 0 hr 2 min 31 sec) 
Heartbeat CPU  3 instructions:   27000000 cycles:   10017607 heartbeat IPC: 2.02466 cumulative IPC: 2.69525 (Simulation time: 0 hr 2 min 32 sec) 
Heartbeat CPU  0 instructions:   23000001 cycles:   10056665 heartbeat IPC: 2.00680 cumulative IPC: 2.28704 (Simulation time: 0 hr 2 min 33 sec) 
Heartbeat CPU  1 instructions:   25000000 cycles:   10417119 heartbeat IPC: 1.89022 cumulative IPC: 2.39990 (Simulation time: 0 hr 2 min 38 sec) 
Heartbeat CPU  3 instructions:   28000000 cycles:   10445142 heartbeat IPC: 2.33899 cumulative IPC: 2.68067 (Simulation time: 0 hr 2 min 38 sec) 
Heartbeat CPU  2 instructions:   29000003 cycles:   10451511 heartbeat IPC: 1.77825 cumulative IPC: 2.77472 (Simulation time: 0 hr 2 min 38 sec) 
Heartbeat CPU  0 instructions:   24000000 cycles:   10568663 heartbeat IPC: 1.95313 cumulative IPC: 2.27086 (Simulation time: 0 hr 2 min 40 sec) 
Heartbeat CPU  3 instructions:   29000002 cycles:   10887897 heartbeat IPC: 2.25859 cumulative IPC: 2.66351 (Simulation time: 0 hr 2 min 43 sec) 
Heartbeat CPU  1 instructions:   26000000 cycles:   10942560 heartbeat IPC: 1.90316 cumulative IPC: 2.37604 (Simulation time: 0 hr 2 min 44 sec) 
Heartbeat CPU  2 instructions:   30000002 cycles:   11042564 heartbeat IPC: 1.69189 cumulative IPC: 2.71676 (Simulation time: 0 hr 2 min 45 sec) 
Heartbeat CPU  0 instructions:   25000000 cycles:   11140583 heartbeat IPC: 1.74850 cumulative IPC: 2.24405 (Simulation time: 0 hr 2 min 46 sec) 
Heartbeat CPU  3 instructions:   30000000 cycles:   11356238 heartbeat IPC: 2.13519 cumulative IPC: 2.64172 (Simulation time: 0 hr 2 min 49 sec) 
Heartbeat CPU  1 instructions:   27000003 cycles:   11453749 heartbeat IPC: 1.95623 cumulative IPC: 2.35731 (Simulation time: 0 hr 2 min 50 sec) 
Heartbeat CPU  2 instructions:   31000002 cycles:   11626224 heartbeat IPC: 1.71333 cumulative IPC: 2.66639 (Simulation time: 0 hr 2 min 53 sec) 
Heartbeat CPU  0 instructions:   26000001 cycles:   11645188 heartbeat IPC: 1.98175 cumulative IPC: 2.23268 (Simulation time: 0 hr 2 min 53 sec) 
Heartbeat CPU  3 instructions:   31000002 cycles:   11815542 heartbeat IPC: 2.17721 cumulative IPC: 2.62366 (Simulation time: 0 hr 2 min 55 sec) 
Heartbeat CPU  1 instructions:   28000000 cycles:   11965317 heartbeat IPC: 1.95477 cumulative IPC: 2.34010 (Simulation time: 0 hr 2 min 57 sec) 
Heartbeat CPU  0 instructions:   27000000 cycles:   12146468 heartbeat IPC: 1.99489 cumulative IPC: 2.22287 (Simulation time: 0 hr 2 min 59 sec) 
Heartbeat CPU  2 instructions:   32000000 cycles:   12193816 heartbeat IPC: 1.76183 cumulative IPC: 2.62428 (Simulation time: 0 hr 3 min 0 sec) 
Heartbeat CPU  3 instructions:   32000000 cycles:   12265492 heartbeat IPC: 2.22246 cumulative IPC: 2.60895 (Simulation time: 0 hr 3 min 1 sec) 
Heartbeat CPU  1 instructions:   29000002 cycles:   12485140 heartbeat IPC: 1.92374 cumulative IPC: 2.32276 (Simulation time: 0 hr 3 min 4 sec) 
Heartbeat CPU  2 instructions:   33000001 cycles:   12615044 heartbeat IPC: 2.37401 cumulative IPC: 2.61592 (Simulation time: 0 hr 3 min 6 sec) 
Heartbeat CPU  0 instructions:   28000000 cycles:   12647929 heartbeat IPC: 1.99417 cumulative IPC: 2.21380 (Simulation time: 0 hr 3 min 6 sec) 
Heartbeat CPU  3 instructions:   33000003 cycles:   12691507 heartbeat IPC: 2.34734 cumulative IPC: 2.60016 (Simulation time: 0 hr 3 min 7 sec) 
Heartbeat CPU  2 instructions:   34000001 cycles:   12915066 heartbeat IPC: 3.33309 cumulative IPC: 2.63258 (Simulation time: 0 hr 3 min 10 sec) 
Heartbeat CPU  1 instructions:   30000000 cycles:   13062846 heartbeat IPC: 1.73098 cumulative IPC: 2.29659 (Simulation time: 0 hr 3 min 12 sec) 
Heartbeat CPU  3 instructions:   34000000 cycles:   13128290 heartbeat IPC: 2.28946 cumulative IPC: 2.58983 (Simulation time: 0 hr 3 min 13 sec) 
Heartbeat CPU  0 instructions:   29000003 cycles:   13148527 heartbeat IPC: 1.99762 cumulative IPC: 2.20557 (Simulation time: 0 hr 3 min 14 sec) 
Heartbeat CPU  2 instructions:   35000001 cycles:   13504420 heartbeat IPC: 1.69677 cumulative IPC: 2.59174 (Simulation time: 0 hr 3 min 17 sec) 
Heartbeat CPU  1 instructions:   31000001 cycles:   13567300 heartbeat IPC: 1.98234 cumulative IPC: 2.28491 (Simulation time: 0 hr 3 min 18 sec) 
Heartbeat CPU  3 instructions:   35000002 cycles:   13587247 heartbeat IPC: 2.17886 cumulative IPC: 2.57595 (Simulation time: 0 hr 3 min 18 sec) 
Heartbeat CPU  0 instructions:   30000001 cycles:   13668369 heartbeat IPC: 1.92366 cumulative IPC: 2.19485 (Simulation time: 0 hr 3 min 19 sec) 
Heartbeat CPU  2 instructions:   36000000 cycles:   13906735 heartbeat IPC: 2.48561 cumulative IPC: 2.58867 (Simulation time: 0 hr 3 min 23 sec) 
Heartbeat CPU  3 instructions:   36000000 cycles:   14051367 heartbeat IPC: 2.15461 cumulative IPC: 2.56203 (Simulation time: 0 hr 3 min 25 sec) 
Heartbeat CPU  1 instructions:   32000000 cycles:   14096925 heartbeat IPC: 1.88813 cumulative IPC: 2.27000 (Simulation time: 0 hr 3 min 26 sec) 
Heartbeat CPU  0 instructions:   31000003 cycles:   14167588 heartbeat IPC: 2.00313 cumulative IPC: 2.18809 (Simulation time: 0 hr 3 min 27 sec) 
Heartbeat CPU  2 instructions:   37000003 cycles:   14207239 heartbeat IPC: 3.32775 cumulative IPC: 2.60431 (Simulation time: 0 hr 3 min 27 sec) 
Heartbeat CPU  3 instructions:   37000002 cycles:   14505948 heartbeat IPC: 2.19983 cumulative IPC: 2.55068 (Simulation time: 0 hr 3 min 31 sec) 
Heartbeat CPU  1 instructions:   33000001 cycles:   14607745 heartbeat IPC: 1.95764 cumulative IPC: 2.25908 (Simulation time: 0 hr 3 min 32 sec) 
Heartbeat CPU  0 instructions:   32000000 cycles:   14673857 heartbeat IPC: 1.97523 cumulative IPC: 2.18075 (Simulation time: 0 hr 3 min 33 sec) 
Heartbeat CPU  2 instructions:   38000001 cycles:   14710343 heartbeat IPC: 1.98766 cumulative IPC: 2.58322 (Simulation time: 0 hr 3 min 34 sec) 
Heartbeat CPU  3 instructions:   38000001 cycles:   14927149 heartbeat IPC: 2.37416 cumulative IPC: 2.54570 (Simulation time: 0 hr 3 min 37 sec) 
Heartbeat CPU  1 instructions:   34000003 cycles:   15075860 heartbeat IPC: 2.13623 cumulative IPC: 2.25526 (Simulation time: 0 hr 3 min 39 sec) 
Heartbeat CPU  0 instructions:   33000002 cycles:   15163251 heartbeat IPC: 2.04335 cumulative IPC: 2.17631 (Simulation time: 0 hr 3 min 40 sec) 
Heartbeat CPU  2 instructions:   39000003 cycles:   15313297 heartbeat IPC: 1.65850 cumulative IPC: 2.54681 (Simulation time: 0 hr 3 min 42 sec) 
Heartbeat CPU  3 instructions:   39000000 cycles:   15361004 heartbeat IPC: 2.30492 cumulative IPC: 2.53890 (Simulation time: 0 hr 3 min 43 sec) 
Heartbeat CPU  1 instructions:   35000001 cycles:   15556225 heartbeat IPC: 2.08175 cumulative IPC: 2.24990 (Simulation time: 0 hr 3 min 45 sec) 
Heartbeat CPU  0 instructions:   34000001 cycles:   15653112 heartbeat IPC: 2.04139 cumulative IPC: 2.17209 (Simulation time: 0 hr 3 min 46 sec) 
Heartbeat CPU  3 instructions:   40000000 cycles:   15813347 heartbeat IPC: 2.21071 cumulative IPC: 2.52951 (Simulation time: 0 hr 3 min 48 sec) 
Heartbeat CPU  2 instructions:   40000000 cycles:   15868312 heartbeat IPC: 1.80175 cumulative IPC: 2.52075 (Simulation time: 0 hr 3 min 49 sec) 
Heartbeat CPU  1 instructions:   36000000 cycles:   16081186 heartbeat IPC: 1.90490 cumulative IPC: 2.23864 (Simulation time: 0 hr 3 min 52 sec) 
Heartbeat CPU  0 instructions:   35000003 cycles:   16138711 heartbeat IPC: 2.05932 cumulative IPC: 2.16870 (Simulation time: 0 hr 3 min 53 sec) 
Heartbeat CPU  3 instructions:   41000000 cycles:   16271529 heartbeat IPC: 2.18254 cumulative IPC: 2.51974 (Simulation time: 0 hr 3 min 54 sec) 
Heartbeat CPU  2 instructions:   41000002 cycles:   16443046 heartbeat IPC: 1.73994 cumulative IPC: 2.49346 (Simulation time: 0 hr 3 min 57 sec) 
Heartbeat CPU  1 instructions:   37000002 cycles:   16571235 heartbeat IPC: 2.04062 cumulative IPC: 2.23278 (Simulation time: 0 hr 3 min 58 sec) 
Heartbeat CPU  0 instructions:   36000000 cycles:   16631624 heartbeat IPC: 2.02875 cumulative IPC: 2.16455 (Simulation time: 0 hr 3 min 59 sec) 
Heartbeat CPU  3 instructions:   42000001 cycles:   16716503 heartbeat IPC: 2.24732 cumulative IPC: 2.51249 (Simulation time: 0 hr 4 min 0 sec) 
Heartbeat CPU  2 instructions:   42000001 cycles:   17002386 heartbeat IPC: 1.78782 cumulative IPC: 2.47024 (Simulation time: 0 hr 4 min 4 sec) 
Heartbeat CPU  0 instructions:   37000000 cycles:   17121110 heartbeat IPC: 2.04296 cumulative IPC: 2.16107 (Simulation time: 0 hr 4 min 5 sec) 
Heartbeat CPU  1 instructions:   38000003 cycles:   17134030 heartbeat IPC: 1.77685 cumulative IPC: 2.21781 (Simulation time: 0 hr 4 min 5 sec) 
Heartbeat CPU  3 instructions:   43000001 cycles:   17154784 heartbeat IPC: 2.28164 cumulative IPC: 2.50659 (Simulation time: 0 hr 4 min 6 sec) 
Heartbeat CPU  3 instructions:   44000000 cycles:   17587433 heartbeat IPC: 2.31134 cumulative IPC: 2.50179 (Simulation time: 0 hr 4 min 11 sec) 
Heartbeat CPU  2 instructions:   43000001 cycles:   17595858 heartbeat IPC: 1.68500 cumulative IPC: 2.44376 (Simulation time: 0 hr 4 min 11 sec) 
Heartbeat CPU  0 instructions:   38000001 cycles:   17633396 heartbeat IPC: 1.95204 cumulative IPC: 2.15500 (Simulation time: 0 hr 4 min 12 sec) 
Heartbeat CPU  1 instructions:   39000000 cycles:   17660754 heartbeat IPC: 1.89852 cumulative IPC: 2.20829 (Simulation time: 0 hr 4 min 12 sec) 
Heartbeat CPU  0 instructions:   39000000 cycles:   18157626 heartbeat IPC: 1.90756 cumulative IPC: 2.14786 (Simulation time: 0 hr 4 min 18 sec) 
Heartbeat CPU  2 instructions:   44000000 cycles:   18161861 heartbeat IPC: 1.76677 cumulative IPC: 2.42266 (Simulation time: 0 hr 4 min 18 sec) 
Heartbeat CPU  1 instructions:   40000000 cycles:   18167487 heartbeat IPC: 1.97343 cumulative IPC: 2.20174 (Simulation time: 0 hr 4 min 18 sec) 
Heartbeat CPU  3 instructions:   45000002 cycles:   18180822 heartbeat IPC: 1.68524 cumulative IPC: 2.47514 (Simulation time: 0 hr 4 min 19 sec) 
Heartbeat CPU  0 instructions:   40000000 cycles:   18688591 heartbeat IPC: 1.88336 cumulative IPC: 2.14034 (Simulation time: 0 hr 4 min 25 sec) 
Heartbeat CPU  1 instructions:   41000002 cycles:   18706635 heartbeat IPC: 1.85478 cumulative IPC: 2.19174 (Simulation time: 0 hr 4 min 25 sec) 
Heartbeat CPU  3 instructions:   46000001 cycles:   18746695 heartbeat IPC: 1.76718 cumulative IPC: 2.45377 (Simulation time: 0 hr 4 min 25 sec) 
Heartbeat CPU  2 instructions:   45000002 cycles:   18753306 heartbeat IPC: 1.69078 cumulative IPC: 2.39958 (Simulation time: 0 hr 4 min 25 sec) 
Heartbeat CPU  1 instructions:   42000002 cycles:   19244960 heartbeat IPC: 1.85761 cumulative IPC: 2.18239 (Simulation time: 0 hr 4 min 31 sec) 
Heartbeat CPU  3 instructions:   47000000 cycles:   19251938 heartbeat IPC: 1.97924 cumulative IPC: 2.44131 (Simulation time: 0 hr 4 min 31 sec) 
Heartbeat CPU  2 instructions:   46000001 cycles:   19320185 heartbeat IPC: 1.76404 cumulative IPC: 2.38093 (Simulation time: 0 hr 4 min 32 sec) 
Heartbeat CPU  0 instructions:   41000001 cycles:   19414207 heartbeat IPC: 1.37814 cumulative IPC: 2.11186 (Simulation time: 0 hr 4 min 33 sec) 
Heartbeat CPU  2 instructions:   47000003 cycles:   19685583 heartbeat IPC: 2.73675 cumulative IPC: 2.38753 (Simulation time: 0 hr 4 min 37 sec) 
Heartbeat CPU  3 instructions:   48000000 cycles:   19733532 heartbeat IPC: 2.07644 cumulative IPC: 2.43241 (Simulation time: 0 hr 4 min 37 sec) 
Heartbeat CPU  1 instructions:   43000000 cycles:   19762225 heartbeat IPC: 1.93324 cumulative IPC: 2.17587 (Simulation time: 0 hr 4 min 38 sec) 
Heartbeat CPU  0 instructions:   42000003 cycles:   19946556 heartbeat IPC: 1.87847 cumulative IPC: 2.10563 (Simulation time: 0 hr 4 min 40 sec) 
Heartbeat CPU  2 instructions:   48000000 cycles:   19987887 heartbeat IPC: 3.30792 cumulative IPC: 2.40145 (Simulation time: 0 hr 4 min 41 sec) 
Heartbeat CPU  3 instructions:   49000001 cycles:   20254124 heartbeat IPC: 1.92089 cumulative IPC: 2.41926 (Simulation time: 0 hr 4 min 45 sec) 
Heartbeat CPU  1 instructions:   44000000 cycles:   20274350 heartbeat IPC: 1.95265 cumulative IPC: 2.17023 (Simulation time: 0 hr 4 min 45 sec) 
Heartbeat CPU  2 instructions:   49000000 cycles:   20285742 heartbeat IPC: 3.35734 cumulative IPC: 2.41549 (Simulation time: 0 hr 4 min 45 sec) 
Heartbeat CPU  0 instructions:   43000000 cycles:   20496909 heartbeat IPC: 1.81701 cumulative IPC: 2.09788 (Simulation time: 0 hr 4 min 48 sec) 
Heartbeat CPU  2 instructions:   50000000 cycles:   20571693 heartbeat IPC: 3.49710 cumulative IPC: 2.43052 (Simulation time: 0 hr 4 min 49 sec) 
Heartbeat CPU  3 instructions:   50000002 cycles:   20774246 heartbeat IPC: 1.92263 cumulative IPC: 2.40683 (Simulation time: 0 hr 4 min 52 sec) 
Heartbeat CPU  1 instructions:   45000003 cycles:   20791132 heartbeat IPC: 1.93506 cumulative IPC: 2.16438 (Simulation time: 0 hr 4 min 53 sec) 
Heartbeat CPU  2 instructions:   51000002 cycles:   20890137 heartbeat IPC: 3.14028 cumulative IPC: 0.04787 (Simulation time: 0 hr 4 min 54 sec) 
Heartbeat CPU  0 instructions:   44000000 cycles:   20996024 heartbeat IPC: 2.00355 cumulative IPC: 2.09563 (Simulation time: 0 hr 4 min 55 sec) 
Heartbeat CPU  2 instructions:   52000000 cycles:   21164514 heartbeat IPC: 3.64461 cumulative IPC: 0.09450 (Simulation time: 0 hr 4 min 57 sec) 
Heartbeat CPU  3 instructions:   51000000 cycles:   21287950 heartbeat IPC: 1.94664 cumulative IPC: 0.04697 (Simulation time: 0 hr 4 min 59 sec) 
Heartbeat CPU  2 instructions:   53000002 cycles:   21464795 heartbeat IPC: 3.33022 cumulative IPC: 0.13976 (Simulation time: 0 hr 5 min 2 sec) 
Heartbeat CPU  0 instructions:   45000003 cycles:   21483429 heartbeat IPC: 2.05169 cumulative IPC: 2.09464 (Simulation time: 0 hr 5 min 2 sec) 
Heartbeat CPU  1 instructions:   46000002 cycles:   21539553 heartbeat IPC: 1.33615 cumulative IPC: 2.13561 (Simulation time: 0 hr 5 min 3 sec) 
Heartbeat CPU  2 instructions:   54000000 cycles:   21739048 heartbeat IPC: 3.64626 cumulative IPC: 0.18400 (Simulation time: 0 hr 5 min 6 sec) 
Heartbeat CPU  3 instructions:   52000000 cycles:   21757659 heartbeat IPC: 2.12898 cumulative IPC: 0.09192 (Simulation time: 0 hr 5 min 6 sec) 
Heartbeat CPU  0 instructions:   46000002 cycles:   21962993 heartbeat IPC: 2.08523 cumulative IPC: 2.09443 (Simulation time: 0 hr 5 min 10 sec) 
Heartbeat CPU  2 instructions:   55000001 cycles:   22013498 heartbeat IPC: 3.64365 cumulative IPC: 0.22713 (Simulation time: 0 hr 5 min 11 sec) 
Heartbeat CPU  1 instructions:   47000000 cycles:   22049050 heartbeat IPC: 1.96272 cumulative IPC: 2.13161 (Simulation time: 0 hr 5 min 11 sec) 
Heartbeat CPU  3 instructions:   53000001 cycles:   22249715 heartbeat IPC: 2.03229 cumulative IPC: 0.13483 (Simulation time: 0 hr 5 min 15 sec) 
Heartbeat CPU  0 instructions:   47000001 cycles:   22416355 heartbeat IPC: 2.20574 cumulative IPC: 2.09668 (Simulation time: 0 hr 5 min 17 sec) 
Heartbeat CPU  2 instructions:   56000000 cycles:   22421046 heartbeat IPC: 2.45370 cumulative IPC: 0.26761 (Simulation time: 0 hr 5 min 17 sec) 
Heartbeat CPU  1 instructions:   48000000 cycles:   22566457 heartbeat IPC: 1.93271 cumulative IPC: 2.12705 (Simulation time: 0 hr 5 min 19 sec) 
Heartbeat CPU  2 instructions:   57000000 cycles:   22744328 heartbeat IPC: 3.09327 cumulative IPC: 0.30777 (Simulation time: 0 hr 5 min 22 sec) 
Heartbeat CPU  3 instructions:   54000001 cycles:   22752563 heartbeat IPC: 1.98867 cumulative IPC: 0.17580 (Simulation time: 0 hr 5 min 22 sec) 
Heartbeat CPU  0 instructions:   48000000 cycles:   22873572 heartbeat IPC: 2.18714 cumulative IPC: 2.09849 (Simulation time: 0 hr 5 min 24 sec) 
Heartbeat CPU  1 instructions:   49000002 cycles:   23038704 heartbeat IPC: 2.11754 cumulative IPC: 2.12686 (Simulation time: 0 hr 5 min 26 sec) 
Heartbeat CPU  2 instructions:   58000000 cycles:   23149205 heartbeat IPC: 2.46989 cumulative IPC: 0.34558 (Simulation time: 0 hr 5 min 28 sec) 
Heartbeat CPU  3 instructions:   55000003 cycles:   23235133 heartbeat IPC: 2.07224 cumulative IPC: 0.21519 (Simulation time: 0 hr 5 min 29 sec) 
Heartbeat CPU  0 instructions:   49000001 cycles:   23301846 heartbeat IPC: 2.33496 cumulative IPC: 2.10284 (Simulation time: 0 hr 5 min 30 sec) 
Heartbeat CPU  2 instructions:   59000000 cycles:   23598770 heartbeat IPC: 2.22437 cumulative IPC: 0.38138 (Simulation time: 0 hr 5 min 34 sec) 
Heartbeat CPU  1 instructions:   50000001 cycles:   23708586 heartbeat IPC: 1.49280 cumulative IPC: 2.10894 (Simulation time: 0 hr 5 min 35 sec) 
Heartbeat CPU  0 instructions:   50000001 cycles:   23747920 heartbeat IPC: 2.24178 cumulative IPC: 2.10545 (Simulation time: 0 hr 5 min 36 sec) 

Warmup complete CPU  0 instructions:   50000001 cycles:   23747920 (Simulation time: 0 hr 5 min 36 sec) 
Warmup complete CPU  1 instructions:   50063142 cycles:   23747920 (Simulation time: 0 hr 5 min 36 sec) 
Warmup complete CPU  2 instructions:   59339227 cycles:   23747919 (Simulation time: 0 hr 5 min 36 sec) 
Warmup complete CPU  3 instructions:   55729678 cycles:   23747920 (Simulation time: 0 hr 5 min 36 sec) 

Heartbeat CPU  3 instructions:   56000000 cycles:   25128702 heartbeat IPC: 0.52810 cumulative IPC: 0.19577 (Simulation time: 0 hr 5 min 38 sec) 
Heartbeat CPU  1 instructions:   51000002 cycles:   27663785 heartbeat IPC: 0.25283 cumulative IPC: 0.23925 (Simulation time: 0 hr 5 min 43 sec) 
Heartbeat CPU  2 instructions:   60000000 cycles:   29531076 heartbeat IPC: 0.16857 cumulative IPC: 0.11426 (Simulation time: 0 hr 5 min 47 sec) 
Heartbeat CPU  1 instructions:   52000000 cycles:   29550285 heartbeat IPC: 0.53008 cumulative IPC: 0.33380 (Simulation time: 0 hr 5 min 47 sec) 
Heartbeat CPU  3 instructions:   57000003 cycles:   29954011 heartbeat IPC: 0.20724 cumulative IPC: 0.20469 (Simulation time: 0 hr 5 min 48 sec) 
Heartbeat CPU  0 instructions:   51000002 cycles:   30723732 heartbeat IPC: 0.14335 cumulative IPC: 0.14335 (Simulation time: 0 hr 5 min 50 sec) 
Heartbeat CPU  1 instructions:   53000000 cycles:   31275866 heartbeat IPC: 0.57951 cumulative IPC: 0.39013 (Simulation time: 0 hr 5 min 52 sec) 
Heartbeat CPU  1 instructions:   54000001 cycles:   32891501 heartbeat IPC: 0.61895 cumulative IPC: 0.43056 (Simulation time: 0 hr 5 min 55 sec) 
Heartbeat CPU  1 instructions:   55000002 cycles:   34468648 heartbeat IPC: 0.63406 cumulative IPC: 0.46050 (Simulation time: 0 hr 5 min 59 sec) 
Heartbeat CPU  3 instructions:   58000003 cycles:   34693303 heartbeat IPC: 0.21100 cumulative IPC: 0.20742 (Simulation time: 0 hr 6 min 0 sec) 
Heartbeat CPU  2 instructions:   61000001 cycles:   36294278 heartbeat IPC: 0.14786 cumulative IPC: 0.13237 (Simulation time: 0 hr 6 min 3 sec) 
Heartbeat CPU  0 instructions:   52000000 cycles:   38076643 heartbeat IPC: 0.13600 cumulative IPC: 0.13958 (Simulation time: 0 hr 6 min 7 sec) 
Heartbeat CPU  1 instructions:   56000000 cycles:   38285901 heartbeat IPC: 0.26197 cumulative IPC: 0.40837 (Simulation time: 0 hr 6 min 7 sec) 
Heartbeat CPU  2 instructions:   62000001 cycles:   38747106 heartbeat IPC: 0.40769 cumulative IPC: 0.17739 (Simulation time: 0 hr 6 min 8 sec) 
Heartbeat CPU  3 instructions:   59000003 cycles:   39451797 heartbeat IPC: 0.21015 cumulative IPC: 0.20825 (Simulation time: 0 hr 6 min 10 sec) 
Heartbeat CPU  2 instructions:   63000000 cycles:   41007818 heartbeat IPC: 0.44234 cumulative IPC: 0.21210 (Simulation time: 0 hr 6 min 13 sec) 
Heartbeat CPU  2 instructions:   64000000 cycles:   42994410 heartbeat IPC: 0.50337 cumulative IPC: 0.24216 (Simulation time: 0 hr 6 min 17 sec) 
Heartbeat CPU  1 instructions:   57000002 cycles:   43165037 heartbeat IPC: 0.20495 cumulative IPC: 0.35725 (Simulation time: 0 hr 6 min 18 sec) 
Heartbeat CPU  3 instructions:   60000000 cycles:   44142746 heartbeat IPC: 0.21318 cumulative IPC: 0.20938 (Simulation time: 0 hr 6 min 20 sec) 
Heartbeat CPU  2 instructions:   65000002 cycles:   45153914 heartbeat IPC: 0.46307 cumulative IPC: 0.26445 (Simulation time: 0 hr 6 min 22 sec) 
Heartbeat CPU  0 instructions:   53000000 cycles:   45494383 heartbeat IPC: 0.13481 cumulative IPC: 0.13795 (Simulation time: 0 hr 6 min 23 sec) 
Heartbeat CPU  1 instructions:   58000003 cycles:   47928668 heartbeat IPC: 0.20992 cumulative IPC: 0.32823 (Simulation time: 0 hr 6 min 28 sec) 
Heartbeat CPU  3 instructions:   61000000 cycles:   48784504 heartbeat IPC: 0.21544 cumulative IPC: 0.21050 (Simulation time: 0 hr 6 min 29 sec) 
Heartbeat CPU  2 instructions:   66000001 cycles:   49015587 heartbeat IPC: 0.25895 cumulative IPC: 0.26361 (Simulation time: 0 hr 6 min 29 sec) 
Heartbeat CPU  1 instructions:   59000003 cycles:   52767162 heartbeat IPC: 0.20668 cumulative IPC: 0.30796 (Simulation time: 0 hr 6 min 36 sec) 
Heartbeat CPU  3 instructions:   62000002 cycles:   53440225 heartbeat IPC: 0.21479 cumulative IPC: 0.21118 (Simulation time: 0 hr 6 min 37 sec) 
Heartbeat CPU  0 instructions:   54000002 cycles:   54017851 heartbeat IPC: 0.11732 cumulative IPC: 0.13214 (Simulation time: 0 hr 6 min 38 sec) 
Heartbeat CPU  2 instructions:   67000002 cycles:   54653927 heartbeat IPC: 0.17736 cumulative IPC: 0.24787 (Simulation time: 0 hr 6 min 39 sec) 
Heartbeat CPU  1 instructions:   60000000 cycles:   57481583 heartbeat IPC: 0.21211 cumulative IPC: 0.29457 (Simulation time: 0 hr 6 min 44 sec) 
Heartbeat CPU  3 instructions:   63000000 cycles:   58147642 heartbeat IPC: 0.21243 cumulative IPC: 0.21135 (Simulation time: 0 hr 6 min 45 sec) 
Heartbeat CPU  2 instructions:   68000000 cycles:   60430785 heartbeat IPC: 0.17310 cumulative IPC: 0.23610 (Simulation time: 0 hr 6 min 49 sec) 
Heartbeat CPU  1 instructions:   61000001 cycles:   61836737 heartbeat IPC: 0.22961 cumulative IPC: 0.28714 (Simulation time: 0 hr 6 min 52 sec) 
Heartbeat CPU  0 instructions:   55000003 cycles:   62464897 heartbeat IPC: 0.11838 cumulative IPC: 0.12914 (Simulation time: 0 hr 6 min 53 sec) 
Heartbeat CPU  3 instructions:   64000000 cycles:   62812689 heartbeat IPC: 0.21436 cumulative IPC: 0.21171 (Simulation time: 0 hr 6 min 54 sec) 
Heartbeat CPU  1 instructions:   62000001 cycles:   63494119 heartbeat IPC: 0.60336 cumulative IPC: 0.30033 (Simulation time: 0 hr 6 min 56 sec) 
Heartbeat CPU  2 instructions:   69000003 cycles:   64092309 heartbeat IPC: 0.27311 cumulative IPC: 0.23946 (Simulation time: 0 hr 6 min 57 sec) 
Heartbeat CPU  1 instructions:   63000002 cycles:   64986012 heartbeat IPC: 0.67029 cumulative IPC: 0.31371 (Simulation time: 0 hr 7 min 0 sec) 
Heartbeat CPU  1 instructions:   64000000 cycles:   66597319 heartbeat IPC: 0.62061 cumulative IPC: 0.32525 (Simulation time: 0 hr 7 min 4 sec) 
Heartbeat CPU  2 instructions:   70000003 cycles:   66722165 heartbeat IPC: 0.38025 cumulative IPC: 0.24807 (Simulation time: 0 hr 7 min 4 sec) 
Heartbeat CPU  3 instructions:   65000000 cycles:   67661318 heartbeat IPC: 0.20624 cumulative IPC: 0.21110 (Simulation time: 0 hr 7 min 7 sec) 
Heartbeat CPU  1 instructions:   65000003 cycles:   68293691 heartbeat IPC: 0.58950 cumulative IPC: 0.33531 (Simulation time: 0 hr 7 min 9 sec) 
Heartbeat CPU  2 instructions:   71000000 cycles:   69318413 heartbeat IPC: 0.38517 cumulative IPC: 0.25588 (Simulation time: 0 hr 7 min 11 sec) 
Heartbeat CPU  0 instructions:   56000000 cycles:   70119822 heartbeat IPC: 0.13063 cumulative IPC: 0.12939 (Simulation time: 0 hr 7 min 13 sec) 
Heartbeat CPU  1 instructions:   66000000 cycles:   71190815 heartbeat IPC: 0.34517 cumulative IPC: 0.33592 (Simulation time: 0 hr 7 min 15 sec) 
Heartbeat CPU  2 instructions:   72000000 cycles:   71976268 heartbeat IPC: 0.37624 cumulative IPC: 0.26252 (Simulation time: 0 hr 7 min 17 sec) 
Heartbeat CPU  3 instructions:   66000001 cycles:   72546994 heartbeat IPC: 0.20468 cumulative IPC: 0.21046 (Simulation time: 0 hr 7 min 18 sec) 
Heartbeat CPU  2 instructions:   73000003 cycles:   74819910 heartbeat IPC: 0.35166 cumulative IPC: 0.26748 (Simulation time: 0 hr 7 min 23 sec) 
Heartbeat CPU  0 instructions:   57000002 cycles:   74932567 heartbeat IPC: 0.20778 cumulative IPC: 0.13676 (Simulation time: 0 hr 7 min 24 sec) 
Heartbeat CPU  1 instructions:   67000001 cycles:   75907453 heartbeat IPC: 0.21202 cumulative IPC: 0.32471 (Simulation time: 0 hr 7 min 26 sec) 
Heartbeat CPU  3 instructions:   67000000 cycles:   77252669 heartbeat IPC: 0.21251 cumulative IPC: 0.21064 (Simulation time: 0 hr 7 min 29 sec) 
Heartbeat CPU  2 instructions:   74000002 cycles:   77330579 heartbeat IPC: 0.39830 cumulative IPC: 0.27361 (Simulation time: 0 hr 7 min 29 sec) 
Heartbeat CPU  0 instructions:   58000001 cycles:   79638689 heartbeat IPC: 0.21249 cumulative IPC: 0.14314 (Simulation time: 0 hr 7 min 35 sec) 
Heartbeat CPU  2 instructions:   75000000 cycles:   79688634 heartbeat IPC: 0.42408 cumulative IPC: 0.27995 (Simulation time: 0 hr 7 min 35 sec) 
Heartbeat CPU  1 instructions:   68000000 cycles:   80870172 heartbeat IPC: 0.20150 cumulative IPC: 0.31401 (Simulation time: 0 hr 7 min 37 sec) 
Heartbeat CPU  3 instructions:   68000000 cycles:   82211294 heartbeat IPC: 0.20167 cumulative IPC: 0.20988 (Simulation time: 0 hr 7 min 40 sec) 
Heartbeat CPU  2 instructions:   76000000 cycles:   82318445 heartbeat IPC: 0.38026 cumulative IPC: 0.28446 (Simulation time: 0 hr 7 min 41 sec) 
Heartbeat CPU  0 instructions:   59000003 cycles:   84278090 heartbeat IPC: 0.21555 cumulative IPC: 0.14869 (Simulation time: 0 hr 7 min 45 sec) 
Heartbeat CPU  2 instructions:   77000000 cycles:   84814526 heartbeat IPC: 0.40063 cumulative IPC: 0.28921 (Simulation time: 0 hr 7 min 46 sec) 
Heartbeat CPU  1 instructions:   69000000 cycles:   85823587 heartbeat IPC: 0.20188 cumulative IPC: 0.30506 (Simulation time: 0 hr 7 min 48 sec) 
Heartbeat CPU  3 instructions:   69000000 cycles:   87030863 heartbeat IPC: 0.20749 cumulative IPC: 0.20970 (Simulation time: 0 hr 7 min 51 sec) 
Heartbeat CPU  2 instructions:   78000001 cycles:   87229164 heartbeat IPC: 0.41414 cumulative IPC: 0.29396 (Simulation time: 0 hr 7 min 52 sec) 
Heartbeat CPU  0 instructions:   60000000 cycles:   88943556 heartbeat IPC: 0.21434 cumulative IPC: 0.15338 (Simulation time: 0 hr 7 min 55 sec) 
Heartbeat CPU  2 instructions:   79000000 cycles:   90003070 heartbeat IPC: 0.36050 cumulative IPC: 0.29674 (Simulation time: 0 hr 7 min 58 sec) 
Heartbeat CPU  1 instructions:   70000000 cycles:   90579259 heartbeat IPC: 0.21028 cumulative IPC: 0.29832 (Simulation time: 0 hr 7 min 59 sec) 
Heartbeat CPU  3 instructions:   70000003 cycles:   91715157 heartbeat IPC: 0.21348 cumulative IPC: 0.20996 (Simulation time: 0 hr 8 min 2 sec) 
Heartbeat CPU  2 instructions:   80000000 cycles:   92798887 heartbeat IPC: 0.35768 cumulative IPC: 0.29921 (Simulation time: 0 hr 8 min 4 sec) 
Heartbeat CPU  0 instructions:   61000001 cycles:   93916196 heartbeat IPC: 0.20110 cumulative IPC: 0.15677 (Simulation time: 0 hr 8 min 6 sec) 
Heartbeat CPU  1 instructions:   71000003 cycles:   95219449 heartbeat IPC: 0.21551 cumulative IPC: 0.29294 (Simulation time: 0 hr 8 min 10 sec) 
Heartbeat CPU  2 instructions:   81000000 cycles:   95475059 heartbeat IPC: 0.37367 cumulative IPC: 0.30199 (Simulation time: 0 hr 8 min 10 sec) 
Heartbeat CPU  3 instructions:   71000001 cycles:   96357725 heartbeat IPC: 0.21540 cumulative IPC: 0.21031 (Simulation time: 0 hr 8 min 12 sec) 
Heartbeat CPU  2 instructions:   82000003 cycles:   98090678 heartbeat IPC: 0.38232 cumulative IPC: 0.30481 (Simulation time: 0 hr 8 min 16 sec) 
Heartbeat CPU  0 instructions:   62000001 cycles:   98773194 heartbeat IPC: 0.20589 cumulative IPC: 0.15995 (Simulation time: 0 hr 8 min 18 sec) 
Heartbeat CPU  1 instructions:   72000000 cycles:   99960040 heartbeat IPC: 0.21094 cumulative IPC: 0.28784 (Simulation time: 0 hr 8 min 20 sec) 
Heartbeat CPU  2 instructions:   83000000 cycles:  100728808 heartbeat IPC: 0.37906 cumulative IPC: 0.30736 (Simulation time: 0 hr 8 min 22 sec) 
Heartbeat CPU  3 instructions:   72000000 cycles:  100944818 heartbeat IPC: 0.21800 cumulative IPC: 0.21076 (Simulation time: 0 hr 8 min 22 sec) 
Heartbeat CPU  2 instructions:   84000000 cycles:  103385150 heartbeat IPC: 0.37646 cumulative IPC: 0.30966 (Simulation time: 0 hr 8 min 28 sec) 
Heartbeat CPU  0 instructions:   63000003 cycles:  103427712 heartbeat IPC: 0.21485 cumulative IPC: 0.16315 (Simulation time: 0 hr 8 min 28 sec) 
Heartbeat CPU  1 instructions:   73000003 cycles:  104681813 heartbeat IPC: 0.21179 cumulative IPC: 0.28340 (Simulation time: 0 hr 8 min 31 sec) 
Heartbeat CPU  3 instructions:   73000003 cycles:  105621377 heartbeat IPC: 0.21383 cumulative IPC: 0.21094 (Simulation time: 0 hr 8 min 33 sec) 
Heartbeat CPU  2 instructions:   85000001 cycles:  106280394 heartbeat IPC: 0.34539 cumulative IPC: 0.31092 (Simulation time: 0 hr 8 min 34 sec) 
Heartbeat CPU  1 instructions:   74000000 cycles:  107673880 heartbeat IPC: 0.33422 cumulative IPC: 0.28521 (Simulation time: 0 hr 8 min 38 sec) 
Heartbeat CPU  0 instructions:   64000000 cycles:  107742666 heartbeat IPC: 0.23175 cumulative IPC: 0.16668 (Simulation time: 0 hr 8 min 38 sec) 
Heartbeat CPU  2 instructions:   86000002 cycles:  108936832 heartbeat IPC: 0.37644 cumulative IPC: 0.31296 (Simulation time: 0 hr 8 min 42 sec) 
Heartbeat CPU  1 instructions:   75000001 cycles:  109386826 heartbeat IPC: 0.58379 cumulative IPC: 0.29119 (Simulation time: 0 hr 8 min 43 sec) 
Heartbeat CPU  3 instructions:   74000002 cycles:  110241998 heartbeat IPC: 0.21642 cumulative IPC: 0.21123 (Simulation time: 0 hr 8 min 46 sec) 
Heartbeat CPU  1 instructions:   76000000 cycles:  111194989 heartbeat IPC: 0.55305 cumulative IPC: 0.29660 (Simulation time: 0 hr 8 min 49 sec) 
Heartbeat CPU  2 instructions:   87000002 cycles:  111240487 heartbeat IPC: 0.43409 cumulative IPC: 0.31615 (Simulation time: 0 hr 8 min 49 sec) 
Heartbeat CPU  0 instructions:   65000001 cycles:  111925519 heartbeat IPC: 0.23907 cumulative IPC: 0.17011 (Simulation time: 0 hr 8 min 51 sec) 
Heartbeat CPU  1 instructions:   77000003 cycles:  112728804 heartbeat IPC: 0.65197 cumulative IPC: 0.30273 (Simulation time: 0 hr 8 min 53 sec) 
Heartbeat CPU  2 instructions:   88000000 cycles:  113251499 heartbeat IPC: 0.49726 cumulative IPC: 0.32022 (Simulation time: 0 hr 8 min 55 sec) 
Heartbeat CPU  1 instructions:   78000003 cycles:  114241101 heartbeat IPC: 0.66125 cumulative IPC: 0.30872 (Simulation time: 0 hr 8 min 58 sec) 
Heartbeat CPU  3 instructions:   75000000 cycles:  114862894 heartbeat IPC: 0.21641 cumulative IPC: 0.21149 (Simulation time: 0 hr 9 min 0 sec) 
Heartbeat CPU  2 instructions:   89000000 cycles:  115003293 heartbeat IPC: 0.57084 cumulative IPC: 0.32503 (Simulation time: 0 hr 9 min 1 sec) 
Heartbeat CPU  0 instructions:   66000000 cycles:  116735179 heartbeat IPC: 0.20791 cumulative IPC: 0.17207 (Simulation time: 0 hr 9 min 5 sec) 
Heartbeat CPU  2 instructions:   90000003 cycles:  117527940 heartbeat IPC: 0.39610 cumulative IPC: 0.32694 (Simulation time: 0 hr 9 min 6 sec) 
Heartbeat CPU  1 instructions:   79000000 cycles:  117805195 heartbeat IPC: 0.28058 cumulative IPC: 0.30765 (Simulation time: 0 hr 9 min 7 sec) 
Heartbeat CPU  3 instructions:   76000000 cycles:  119552571 heartbeat IPC: 0.21323 cumulative IPC: 0.21158 (Simulation time: 0 hr 9 min 11 sec) 
Heartbeat CPU  2 instructions:   91000001 cycles:  120207417 heartbeat IPC: 0.37321 cumulative IPC: 0.32823 (Simulation time: 0 hr 9 min 13 sec) 
Heartbeat CPU  0 instructions:   67000001 cycles:  120680975 heartbeat IPC: 0.25343 cumulative IPC: 0.17538 (Simulation time: 0 hr 9 min 14 sec) 
Heartbeat CPU  1 instructions:   80000000 cycles:  122535580 heartbeat IPC: 0.21140 cumulative IPC: 0.30304 (Simulation time: 0 hr 9 min 18 sec) 
Heartbeat CPU  3 instructions:   77000000 cycles:  124303246 heartbeat IPC: 0.21050 cumulative IPC: 0.21153 (Simulation time: 0 hr 9 min 21 sec) 
Heartbeat CPU  0 instructions:   68000000 cycles:  124582228 heartbeat IPC: 0.25633 cumulative IPC: 0.17851 (Simulation time: 0 hr 9 min 22 sec) 
Heartbeat CPU  2 instructions:   92000000 cycles:  125550063 heartbeat IPC: 0.18717 cumulative IPC: 0.32083 (Simulation time: 0 hr 9 min 24 sec) 
Heartbeat CPU  1 instructions:   81000003 cycles:  127214666 heartbeat IPC: 0.21372 cumulative IPC: 0.29900 (Simulation time: 0 hr 9 min 27 sec) 
Heartbeat CPU  3 instructions:   78000000 cycles:  128906845 heartbeat IPC: 0.21722 cumulative IPC: 0.21178 (Simulation time: 0 hr 9 min 30 sec) 
Heartbeat CPU  0 instructions:   69000003 cycles:  129207912 heartbeat IPC: 0.21618 cumulative IPC: 0.18016 (Simulation time: 0 hr 9 min 31 sec) 
Heartbeat CPU  2 instructions:   93000000 cycles:  131212894 heartbeat IPC: 0.17659 cumulative IPC: 0.31323 (Simulation time: 0 hr 9 min 35 sec) 
Heartbeat CPU  1 instructions:   82000003 cycles:  131943116 heartbeat IPC: 0.21149 cumulative IPC: 0.29518 (Simulation time: 0 hr 9 min 36 sec) 
Heartbeat CPU  3 instructions:   79000003 cycles:  133482389 heartbeat IPC: 0.21855 cumulative IPC: 0.21206 (Simulation time: 0 hr 9 min 39 sec) 
Heartbeat CPU  0 instructions:   70000003 cycles:  133986311 heartbeat IPC: 0.20928 cumulative IPC: 0.18143 (Simulation time: 0 hr 9 min 40 sec) 
Heartbeat CPU  1 instructions:   83000002 cycles:  136629967 heartbeat IPC: 0.21336 cumulative IPC: 0.29178 (Simulation time: 0 hr 9 min 45 sec) 
Heartbeat CPU  2 instructions:   94000000 cycles:  136953620 heartbeat IPC: 0.17419 cumulative IPC: 0.30618 (Simulation time: 0 hr 9 min 46 sec) 
Heartbeat CPU  3 instructions:   80000000 cycles:  138067738 heartbeat IPC: 0.21809 cumulative IPC: 0.21230 (Simulation time: 0 hr 9 min 48 sec) 
Heartbeat CPU  0 instructions:   71000002 cycles:  138775757 heartbeat IPC: 0.20879 cumulative IPC: 0.18256 (Simulation time: 0 hr 9 min 49 sec) 
Heartbeat CPU  1 instructions:   84000000 cycles:  141233592 heartbeat IPC: 0.21722 cumulative IPC: 0.28886 (Simulation time: 0 hr 9 min 54 sec) 
Heartbeat CPU  3 instructions:   81000002 cycles:  142572079 heartbeat IPC: 0.22201 cumulative IPC: 0.21267 (Simulation time: 0 hr 9 min 56 sec) 
Heartbeat CPU  2 instructions:   95000003 cycles:  142795807 heartbeat IPC: 0.17117 cumulative IPC: 0.29955 (Simulation time: 0 hr 9 min 57 sec) 
Heartbeat CPU  0 instructions:   72000000 cycles:  143506601 heartbeat IPC: 0.21138 cumulative IPC: 0.18370 (Simulation time: 0 hr 9 min 58 sec) 
Heartbeat CPU  1 instructions:   85000003 cycles:  146043482 heartbeat IPC: 0.20791 cumulative IPC: 0.28568 (Simulation time: 0 hr 10 min 3 sec) 
Heartbeat CPU  3 instructions:   82000002 cycles:  147149891 heartbeat IPC: 0.21844 cumulative IPC: 0.21288 (Simulation time: 0 hr 10 min 5 sec) 
Heartbeat CPU  0 instructions:   73000001 cycles:  147616908 heartbeat IPC: 0.24329 cumulative IPC: 0.18568 (Simulation time: 0 hr 10 min 6 sec) 
Heartbeat CPU  2 instructions:   96000000 cycles:  148599364 heartbeat IPC: 0.17231 cumulative IPC: 0.29364 (Simulation time: 0 hr 10 min 8 sec) 
Heartbeat CPU  1 instructions:   86000000 cycles:  150537177 heartbeat IPC: 0.22253 cumulative IPC: 0.28344 (Simulation time: 0 hr 10 min 12 sec) 
Heartbeat CPU  3 instructions:   83000002 cycles:  151831527 heartbeat IPC: 0.21360 cumulative IPC: 0.21291 (Simulation time: 0 hr 10 min 15 sec) 
Heartbeat CPU  1 instructions:   87000000 cycles:  152095043 heartbeat IPC: 0.64190 cumulative IPC: 0.28779 (Simulation time: 0 hr 10 min 16 sec) 
Heartbeat CPU  0 instructions:   74000002 cycles:  152293487 heartbeat IPC: 0.21383 cumulative IPC: 0.18670 (Simulation time: 0 hr 10 min 16 sec) 
Heartbeat CPU  1 instructions:   88000000 cycles:  153562170 heartbeat IPC: 0.68160 cumulative IPC: 0.29224 (Simulation time: 0 hr 10 min 20 sec) 
Heartbeat CPU  2 instructions:   97000000 cycles:  154426533 heartbeat IPC: 0.17161 cumulative IPC: 0.28819 (Simulation time: 0 hr 10 min 22 sec) 
Heartbeat CPU  1 instructions:   89000000 cycles:  154974615 heartbeat IPC: 0.70799 cumulative IPC: 0.29671 (Simulation time: 0 hr 10 min 23 sec) 
Heartbeat CPU  3 instructions:   84000000 cycles:  156478603 heartbeat IPC: 0.21519 cumulative IPC: 0.21299 (Simulation time: 0 hr 10 min 27 sec) 
Heartbeat CPU  0 instructions:   75000000 cycles:  156920945 heartbeat IPC: 0.21610 cumulative IPC: 0.18773 (Simulation time: 0 hr 10 min 28 sec) 
Heartbeat CPU  2 instructions:   98000000 cycles:  157679014 heartbeat IPC: 0.30746 cumulative IPC: 0.28866 (Simulation time: 0 hr 10 min 30 sec) 
Heartbeat CPU  1 instructions:   90000003 cycles:  157912133 heartbeat IPC: 0.34042 cumulative IPC: 0.29767 (Simulation time: 0 hr 10 min 30 sec) 
Heartbeat CPU  2 instructions:   99000002 cycles:  159977827 heartbeat IPC: 0.43501 cumulative IPC: 0.29113 (Simulation time: 0 hr 10 min 35 sec) 
Heartbeat CPU  3 instructions:   85000001 cycles:  161126646 heartbeat IPC: 0.21514 cumulative IPC: 0.21306 (Simulation time: 0 hr 10 min 38 sec) 
Heartbeat CPU  0 instructions:   76000000 cycles:  161619168 heartbeat IPC: 0.21285 cumulative IPC: 0.18858 (Simulation time: 0 hr 10 min 39 sec) 
*** Reached end of trace for Core: 2 Repeating trace: /data3/STREAMING/traces/streaming_phase0_core2.trace.xz
Heartbeat CPU  2 instructions:  100000000 cycles:  162335739 heartbeat IPC: 0.42410 cumulative IPC: 0.29339 (Simulation time: 0 hr 10 min 41 sec) 
Heartbeat CPU  1 instructions:   91000003 cycles:  162536157 heartbeat IPC: 0.21626 cumulative IPC: 0.29496 (Simulation time: 0 hr 10 min 41 sec) 
Heartbeat CPU  2 instructions:  101000000 cycles:  164037525 heartbeat IPC: 0.58762 cumulative IPC: 0.29696 (Simulation time: 0 hr 10 min 45 sec) 
Heartbeat CPU  2 instructions:  102000003 cycles:  165699166 heartbeat IPC: 0.60182 cumulative IPC: 0.30053 (Simulation time: 0 hr 10 min 50 sec) 
Heartbeat CPU  3 instructions:   86000001 cycles:  165758274 heartbeat IPC: 0.21591 cumulative IPC: 0.21316 (Simulation time: 0 hr 10 min 50 sec) 
Heartbeat CPU  0 instructions:   77000003 cycles:  166256161 heartbeat IPC: 0.21566 cumulative IPC: 0.18946 (Simulation time: 0 hr 10 min 51 sec) 
Heartbeat CPU  1 instructions:   92000000 cycles:  167196623 heartbeat IPC: 0.21457 cumulative IPC: 0.29235 (Simulation time: 0 hr 10 min 54 sec) 
Heartbeat CPU  2 instructions:  103000001 cycles:  167264305 heartbeat IPC: 0.63892 cumulative IPC: 0.30422 (Simulation time: 0 hr 10 min 54 sec) 
Heartbeat CPU  2 instructions:  104000000 cycles:  168753302 heartbeat IPC: 0.67159 cumulative IPC: 0.30799 (Simulation time: 0 hr 10 min 58 sec) 
Heartbeat CPU  2 instructions:  105000002 cycles:  170361386 heartbeat IPC: 0.62186 cumulative IPC: 0.31144 (Simulation time: 0 hr 11 min 2 sec) 
Heartbeat CPU  3 instructions:   87000000 cycles:  170464202 heartbeat IPC: 0.21250 cumulative IPC: 0.21313 (Simulation time: 0 hr 11 min 2 sec) 
Heartbeat CPU  0 instructions:   78000001 cycles:  170941154 heartbeat IPC: 0.21345 cumulative IPC: 0.19023 (Simulation time: 0 hr 11 min 4 sec) 
Heartbeat CPU  1 instructions:   93000003 cycles:  171809658 heartbeat IPC: 0.21678 cumulative IPC: 0.28999 (Simulation time: 0 hr 11 min 6 sec) 
Heartbeat CPU  2 instructions:  106000001 cycles:  171858707 heartbeat IPC: 0.66786 cumulative IPC: 0.31504 (Simulation time: 0 hr 11 min 6 sec) 
Heartbeat CPU  2 instructions:  107000001 cycles:  173401916 heartbeat IPC: 0.64800 cumulative IPC: 0.31847 (Simulation time: 0 hr 11 min 10 sec) 
Heartbeat CPU  3 instructions:   88000000 cycles:  174263207 heartbeat IPC: 0.26323 cumulative IPC: 0.21440 (Simulation time: 0 hr 11 min 13 sec) 
Heartbeat CPU  2 instructions:  108000000 cycles:  175596098 heartbeat IPC: 0.45575 cumulative IPC: 0.32046 (Simulation time: 0 hr 11 min 17 sec) 
Heartbeat CPU  0 instructions:   79000001 cycles:  175673490 heartbeat IPC: 0.21131 cumulative IPC: 0.19088 (Simulation time: 0 hr 11 min 17 sec) 
Heartbeat CPU  3 instructions:   89000003 cycles:  176373485 heartbeat IPC: 0.47387 cumulative IPC: 0.21799 (Simulation time: 0 hr 11 min 19 sec) 
Heartbeat CPU  1 instructions:   94000003 cycles:  177244968 heartbeat IPC: 0.18398 cumulative IPC: 0.28624 (Simulation time: 0 hr 11 min 21 sec) 
Heartbeat CPU  2 instructions:  109000001 cycles:  177897607 heartbeat IPC: 0.43450 cumulative IPC: 0.32216 (Simulation time: 0 hr 11 min 23 sec) 
Heartbeat CPU  3 instructions:   90000000 cycles:  179385963 heartbeat IPC: 0.33195 cumulative IPC: 0.22019 (Simulation time: 0 hr 11 min 26 sec) 
Heartbeat CPU  2 instructions:  110000003 cycles:  180184279 heartbeat IPC: 0.43732 cumulative IPC: 0.32384 (Simulation time: 0 hr 11 min 28 sec) 
Heartbeat CPU  0 instructions:   80000000 cycles:  180320532 heartbeat IPC: 0.21519 cumulative IPC: 0.19160 (Simulation time: 0 hr 11 min 28 sec) 
Heartbeat CPU  2 instructions:  111000001 cycles:  182778219 heartbeat IPC: 0.38551 cumulative IPC: 0.32485 (Simulation time: 0 hr 11 min 33 sec) 
Heartbeat CPU  3 instructions:   91000002 cycles:  183993380 heartbeat IPC: 0.21704 cumulative IPC: 0.22010 (Simulation time: 0 hr 11 min 36 sec) 
Heartbeat CPU  0 instructions:   81000001 cycles:  185053604 heartbeat IPC: 0.21128 cumulative IPC: 0.19218 (Simulation time: 0 hr 11 min 38 sec) 
Heartbeat CPU  2 instructions:  112000000 cycles:  185703316 heartbeat IPC: 0.34187 cumulative IPC: 0.32516 (Simulation time: 0 hr 11 min 39 sec) 
Heartbeat CPU  1 instructions:   95000003 cycles:  186097890 heartbeat IPC: 0.11296 cumulative IPC: 0.27679 (Simulation time: 0 hr 11 min 40 sec) 
Heartbeat CPU  2 instructions:  113000001 cycles:  188073431 heartbeat IPC: 0.42192 cumulative IPC: 0.32655 (Simulation time: 0 hr 11 min 45 sec) 
Heartbeat CPU  3 instructions:   92000000 cycles:  188603717 heartbeat IPC: 0.21690 cumulative IPC: 0.22001 (Simulation time: 0 hr 11 min 46 sec) 
Heartbeat CPU  0 instructions:   82000001 cycles:  189737229 heartbeat IPC: 0.21351 cumulative IPC: 0.19278 (Simulation time: 0 hr 11 min 48 sec) 
Heartbeat CPU  2 instructions:  114000001 cycles:  190600219 heartbeat IPC: 0.39576 cumulative IPC: 0.32760 (Simulation time: 0 hr 11 min 50 sec) 
Heartbeat CPU  2 instructions:  115000003 cycles:  193218708 heartbeat IPC: 0.38190 cumulative IPC: 0.32844 (Simulation time: 0 hr 11 min 56 sec) 
Heartbeat CPU  3 instructions:   93000000 cycles:  193236964 heartbeat IPC: 0.21583 cumulative IPC: 0.21990 (Simulation time: 0 hr 11 min 56 sec) 
Heartbeat CPU  0 instructions:   83000003 cycles:  194375932 heartbeat IPC: 0.21558 cumulative IPC: 0.19340 (Simulation time: 0 hr 11 min 58 sec) 
Heartbeat CPU  1 instructions:   96000000 cycles:  194974875 heartbeat IPC: 0.11265 cumulative IPC: 0.26828 (Simulation time: 0 hr 12 min 0 sec) 
Heartbeat CPU  2 instructions:  116000000 cycles:  195922609 heartbeat IPC: 0.36983 cumulative IPC: 0.32909 (Simulation time: 0 hr 12 min 2 sec) 
Heartbeat CPU  3 instructions:   94000000 cycles:  198134594 heartbeat IPC: 0.20418 cumulative IPC: 0.21946 (Simulation time: 0 hr 12 min 6 sec) 
Heartbeat CPU  2 instructions:  117000002 cycles:  198526845 heartbeat IPC: 0.38399 cumulative IPC: 0.32991 (Simulation time: 0 hr 12 min 7 sec) 
Heartbeat CPU  0 instructions:   84000000 cycles:  199017986 heartbeat IPC: 0.21542 cumulative IPC: 0.19399 (Simulation time: 0 hr 12 min 8 sec) 
Heartbeat CPU  2 instructions:  118000003 cycles:  201140477 heartbeat IPC: 0.38261 cumulative IPC: 0.33068 (Simulation time: 0 hr 12 min 13 sec) 
Heartbeat CPU  1 instructions:   97000001 cycles:  202528790 heartbeat IPC: 0.13238 cumulative IPC: 0.26254 (Simulation time: 0 hr 12 min 16 sec) 
Heartbeat CPU  3 instructions:   95000002 cycles:  202991249 heartbeat IPC: 0.20590 cumulative IPC: 0.21909 (Simulation time: 0 hr 12 min 17 sec) 
Heartbeat CPU  2 instructions:  119000000 cycles:  203595184 heartbeat IPC: 0.40738 cumulative IPC: 0.33173 (Simulation time: 0 hr 12 min 18 sec) 
Heartbeat CPU  0 instructions:   85000001 cycles:  203737820 heartbeat IPC: 0.21187 cumulative IPC: 0.19446 (Simulation time: 0 hr 12 min 19 sec) 
Heartbeat CPU  2 instructions:  120000000 cycles:  206414510 heartbeat IPC: 0.35469 cumulative IPC: 0.33208 (Simulation time: 0 hr 12 min 24 sec) 
Heartbeat CPU  3 instructions:   96000000 cycles:  207842240 heartbeat IPC: 0.20614 cumulative IPC: 0.21875 (Simulation time: 0 hr 12 min 27 sec) 
Heartbeat CPU  0 instructions:   86000001 cycles:  208459570 heartbeat IPC: 0.21179 cumulative IPC: 0.19490 (Simulation time: 0 hr 12 min 29 sec) 
Heartbeat CPU  2 instructions:  121000002 cycles:  209137898 heartbeat IPC: 0.36719 cumulative IPC: 0.33260 (Simulation time: 0 hr 12 min 30 sec) 
Heartbeat CPU  1 instructions:   98000003 cycles:  209740413 heartbeat IPC: 0.13867 cumulative IPC: 0.25774 (Simulation time: 0 hr 12 min 31 sec) 
Heartbeat CPU  2 instructions:  122000000 cycles:  211972913 heartbeat IPC: 0.35273 cumulative IPC: 0.33290 (Simulation time: 0 hr 12 min 36 sec) 
Heartbeat CPU  3 instructions:   97000001 cycles:  212845298 heartbeat IPC: 0.19988 cumulative IPC: 0.21825 (Simulation time: 0 hr 12 min 38 sec) 
Heartbeat CPU  0 instructions:   87000003 cycles:  213157293 heartbeat IPC: 0.21287 cumulative IPC: 0.19534 (Simulation time: 0 hr 12 min 38 sec) 
Heartbeat CPU  2 instructions:  123000003 cycles:  214740389 heartbeat IPC: 0.36134 cumulative IPC: 0.33332 (Simulation time: 0 hr 12 min 41 sec) 
Heartbeat CPU  3 instructions:   98000002 cycles:  217621876 heartbeat IPC: 0.20936 cumulative IPC: 0.21803 (Simulation time: 0 hr 12 min 46 sec) 
Heartbeat CPU  1 instructions:   99000003 cycles:  217803056 heartbeat IPC: 0.12403 cumulative IPC: 0.25218 (Simulation time: 0 hr 12 min 47 sec) 
Heartbeat CPU  0 instructions:   88000000 cycles:  217865216 heartbeat IPC: 0.21241 cumulative IPC: 0.19576 (Simulation time: 0 hr 12 min 47 sec) 
Heartbeat CPU  2 instructions:  124000000 cycles:  220766816 heartbeat IPC: 0.16594 cumulative IPC: 0.32820 (Simulation time: 0 hr 12 min 52 sec) 
Heartbeat CPU  3 instructions:   99000003 cycles:  222249345 heartbeat IPC: 0.21610 cumulative IPC: 0.21798 (Simulation time: 0 hr 12 min 54 sec) 
Heartbeat CPU  0 instructions:   89000001 cycles:  222469000 heartbeat IPC: 0.21721 cumulative IPC: 0.19625 (Simulation time: 0 hr 12 min 55 sec) 
*** Reached end of trace for Core: 1 Repeating trace: /data3/STREAMING/traces/streaming_phase0_core1.trace.xz
Heartbeat CPU  1 instructions:  100000000 cycles:  225549665 heartbeat IPC: 0.12909 cumulative IPC: 0.24746 (Simulation time: 0 hr 13 min 0 sec) 
Heartbeat CPU  2 instructions:  125000003 cycles:  226572991 heartbeat IPC: 0.17223 cumulative IPC: 0.32373 (Simulation time: 0 hr 13 min 2 sec) 
*** Reached end of trace for Core: 3 Repeating trace: /data3/STREAMING/traces/streaming_phase0_core3.trace.xz
Heartbeat CPU  3 instructions:  100000000 cycles:  227126413 heartbeat IPC: 0.20504 cumulative IPC: 0.21767 (Simulation time: 0 hr 13 min 4 sec) 
Heartbeat CPU  0 instructions:   90000002 cycles:  227233867 heartbeat IPC: 0.20987 cumulative IPC: 0.19657 (Simulation time: 0 hr 13 min 4 sec) 
Heartbeat CPU  1 instructions:  101000002 cycles:  227752873 heartbeat IPC: 0.45388 cumulative IPC: 0.24968 (Simulation time: 0 hr 13 min 5 sec) 
Heartbeat CPU  1 instructions:  102000002 cycles:  229990141 heartbeat IPC: 0.44697 cumulative IPC: 0.25182 (Simulation time: 0 hr 13 min 11 sec) 
Heartbeat CPU  3 instructions:  101000000 cycles:  230108518 heartbeat IPC: 0.33533 cumulative IPC: 0.21937 (Simulation time: 0 hr 13 min 11 sec) 
Heartbeat CPU  0 instructions:   91000001 cycles:  231970431 heartbeat IPC: 0.21112 cumulative IPC: 0.19690 (Simulation time: 0 hr 13 min 16 sec) 
Heartbeat CPU  1 instructions:  103000000 cycles:  232135090 heartbeat IPC: 0.46621 cumulative IPC: 0.25403 (Simulation time: 0 hr 13 min 17 sec) 
Heartbeat CPU  2 instructions:  126000001 cycles:  232270905 heartbeat IPC: 0.17550 cumulative IPC: 0.31968 (Simulation time: 0 hr 13 min 18 sec) 
Heartbeat CPU  3 instructions:  102000001 cycles:  232327979 heartbeat IPC: 0.45056 cumulative IPC: 0.22183 (Simulation time: 0 hr 13 min 18 sec) 
Heartbeat CPU  1 instructions:  104000000 cycles:  234292954 heartbeat IPC: 0.46342 cumulative IPC: 0.25618 (Simulation time: 0 hr 13 min 23 sec) 
Heartbeat CPU  3 instructions:  103000000 cycles:  234556940 heartbeat IPC: 0.44864 cumulative IPC: 0.22423 (Simulation time: 0 hr 13 min 24 sec) 
Heartbeat CPU  0 instructions:   92000000 cycles:  236235750 heartbeat IPC: 0.23445 cumulative IPC: 0.19766 (Simulation time: 0 hr 13 min 29 sec) 
Heartbeat CPU  1 instructions:  105000002 cycles:  236439676 heartbeat IPC: 0.46583 cumulative IPC: 0.25829 (Simulation time: 0 hr 13 min 29 sec) 
Heartbeat CPU  3 instructions:  104000000 cycles:  236719733 heartbeat IPC: 0.46237 cumulative IPC: 0.22665 (Simulation time: 0 hr 13 min 30 sec) 
Heartbeat CPU  2 instructions:  127000003 cycles:  238038894 heartbeat IPC: 0.17337 cumulative IPC: 0.31574 (Simulation time: 0 hr 13 min 34 sec) 
Heartbeat CPU  1 instructions:  106000001 cycles:  238420321 heartbeat IPC: 0.50489 cumulative IPC: 0.26057 (Simulation time: 0 hr 13 min 35 sec) 
Heartbeat CPU  1 instructions:  107000000 cycles:  240404404 heartbeat IPC: 0.50401 cumulative IPC: 0.26280 (Simulation time: 0 hr 13 min 39 sec) 
Heartbeat CPU  0 instructions:   93000003 cycles:  240910254 heartbeat IPC: 0.21393 cumulative IPC: 0.19801 (Simulation time: 0 hr 13 min 41 sec) 
Heartbeat CPU  1 instructions:  108000000 cycles:  242567975 heartbeat IPC: 0.46220 cumulative IPC: 0.26477 (Simulation time: 0 hr 13 min 44 sec) 
Heartbeat CPU  3 instructions:  105000003 cycles:  242669479 heartbeat IPC: 0.16807 cumulative IPC: 0.22506 (Simulation time: 0 hr 13 min 45 sec) 
Heartbeat CPU  2 instructions:  128000000 cycles:  243774068 heartbeat IPC: 0.17436 cumulative IPC: 0.31206 (Simulation time: 0 hr 13 min 47 sec) 
Heartbeat CPU  1 instructions:  109000001 cycles:  244683736 heartbeat IPC: 0.47264 cumulative IPC: 0.26676 (Simulation time: 0 hr 13 min 49 sec) 
Heartbeat CPU  0 instructions:   94000001 cycles:  246000792 heartbeat IPC: 0.19644 cumulative IPC: 0.19797 (Simulation time: 0 hr 13 min 52 sec) 
Heartbeat CPU  1 instructions:  110000001 cycles:  247401572 heartbeat IPC: 0.36794 cumulative IPC: 0.26799 (Simulation time: 0 hr 13 min 55 sec) 
Heartbeat CPU  2 instructions:  129000002 cycles:  249603604 heartbeat IPC: 0.17154 cumulative IPC: 0.30843 (Simulation time: 0 hr 13 min 59 sec) 
Heartbeat CPU  0 instructions:   95000003 cycles:  250977840 heartbeat IPC: 0.20092 cumulative IPC: 0.19804 (Simulation time: 0 hr 14 min 1 sec) 
Heartbeat CPU  3 instructions:  106000001 cycles:  251126622 heartbeat IPC: 0.11824 cumulative IPC: 0.22109 (Simulation time: 0 hr 14 min 1 sec) 
Heartbeat CPU  1 instructions:  111000003 cycles:  252170230 heartbeat IPC: 0.20970 cumulative IPC: 0.26677 (Simulation time: 0 hr 14 min 3 sec) 
Heartbeat CPU  2 instructions:  130000002 cycles:  255326898 heartbeat IPC: 0.17472 cumulative IPC: 0.30513 (Simulation time: 0 hr 14 min 9 sec) 
Heartbeat CPU  0 instructions:   96000000 cycles:  255859500 heartbeat IPC: 0.20485 cumulative IPC: 0.19818 (Simulation time: 0 hr 14 min 9 sec) 
Heartbeat CPU  1 instructions:  112000000 cycles:  256869664 heartbeat IPC: 0.21279 cumulative IPC: 0.26568 (Simulation time: 0 hr 14 min 12 sec) 
Heartbeat CPU  3 instructions:  107000000 cycles:  256890204 heartbeat IPC: 0.17350 cumulative IPC: 0.21991 (Simulation time: 0 hr 14 min 12 sec) 
Heartbeat CPU  3 instructions:  108000000 cycles:  258599680 heartbeat IPC: 0.58497 cumulative IPC: 0.22257 (Simulation time: 0 hr 14 min 16 sec) 
Heartbeat CPU  3 instructions:  109000001 cycles:  260114692 heartbeat IPC: 0.66006 cumulative IPC: 0.22537 (Simulation time: 0 hr 14 min 20 sec) 
Heartbeat CPU  0 instructions:   97000003 cycles:  260589500 heartbeat IPC: 0.21142 cumulative IPC: 0.19844 (Simulation time: 0 hr 14 min 21 sec) 
Heartbeat CPU  2 instructions:  131000002 cycles:  261072796 heartbeat IPC: 0.17404 cumulative IPC: 0.30195 (Simulation time: 0 hr 14 min 23 sec) 
Heartbeat CPU  1 instructions:  113000002 cycles:  261563046 heartbeat IPC: 0.21307 cumulative IPC: 0.26465 (Simulation time: 0 hr 14 min 24 sec) 
Heartbeat CPU  3 instructions:  110000001 cycles:  261741005 heartbeat IPC: 0.61489 cumulative IPC: 0.22803 (Simulation time: 0 hr 14 min 24 sec) 
Heartbeat CPU  3 instructions:  111000002 cycles:  263251406 heartbeat IPC: 0.66208 cumulative IPC: 0.23077 (Simulation time: 0 hr 14 min 28 sec) 
Heartbeat CPU  0 instructions:   98000003 cycles:  265427999 heartbeat IPC: 0.20668 cumulative IPC: 0.19861 (Simulation time: 0 hr 14 min 32 sec) 
Heartbeat CPU  1 instructions:  114000000 cycles:  266226697 heartbeat IPC: 0.21442 cumulative IPC: 0.26368 (Simulation time: 0 hr 14 min 34 sec) 
Heartbeat CPU  2 instructions:  132000000 cycles:  266666509 heartbeat IPC: 0.17877 cumulative IPC: 0.29912 (Simulation time: 0 hr 14 min 35 sec) 
Heartbeat CPU  3 instructions:  112000000 cycles:  266847913 heartbeat IPC: 0.27805 cumulative IPC: 0.23147 (Simulation time: 0 hr 14 min 35 sec) 
Heartbeat CPU  3 instructions:  113000002 cycles:  268686053 heartbeat IPC: 0.54403 cumulative IPC: 0.23382 (Simulation time: 0 hr 14 min 40 sec) 
Heartbeat CPU  0 instructions:   99000000 cycles:  270103262 heartbeat IPC: 0.21389 cumulative IPC: 0.19890 (Simulation time: 0 hr 14 min 44 sec) 
Heartbeat CPU  2 instructions:  133000001 cycles:  270477675 heartbeat IPC: 0.26239 cumulative IPC: 0.29855 (Simulation time: 0 hr 14 min 45 sec) 
Heartbeat CPU  3 instructions:  114000001 cycles:  270590589 heartbeat IPC: 0.52506 cumulative IPC: 0.23606 (Simulation time: 0 hr 14 min 45 sec) 
Heartbeat CPU  1 instructions:  115000000 cycles:  270896042 heartbeat IPC: 0.21416 cumulative IPC: 0.26274 (Simulation time: 0 hr 14 min 46 sec) 
Heartbeat CPU  3 instructions:  115000001 cycles:  272413691 heartbeat IPC: 0.54852 cumulative IPC: 0.23835 (Simulation time: 0 hr 14 min 50 sec) 
Heartbeat CPU  2 instructions:  134000003 cycles:  273316083 heartbeat IPC: 0.35231 cumulative IPC: 0.29916 (Simulation time: 0 hr 14 min 53 sec) 
Heartbeat CPU  3 instructions:  116000000 cycles:  274243919 heartbeat IPC: 0.54638 cumulative IPC: 0.24060 (Simulation time: 0 hr 14 min 55 sec) 
*** Reached end of trace for Core: 0 Repeating trace: /data3/STREAMING/traces/streaming_phase0_core0.trace.xz
Heartbeat CPU  0 instructions:  100000000 cycles:  274685907 heartbeat IPC: 0.21821 cumulative IPC: 0.19925 (Simulation time: 0 hr 14 min 57 sec) 
Heartbeat CPU  1 instructions:  116000000 cycles:  275553033 heartbeat IPC: 0.21473 cumulative IPC: 0.26186 (Simulation time: 0 hr 14 min 59 sec) 
Heartbeat CPU  3 instructions:  117000002 cycles:  276277119 heartbeat IPC: 0.49184 cumulative IPC: 0.24263 (Simulation time: 0 hr 15 min 1 sec) 
Heartbeat CPU  0 instructions:  101000002 cycles:  277219123 heartbeat IPC: 0.39476 cumulative IPC: 0.20121 (Simulation time: 0 hr 15 min 4 sec) 
Heartbeat CPU  2 instructions:  135000001 cycles:  277446461 heartbeat IPC: 0.24211 cumulative IPC: 0.29823 (Simulation time: 0 hr 15 min 4 sec) 
Heartbeat CPU  3 instructions:  118000000 cycles:  278375545 heartbeat IPC: 0.47655 cumulative IPC: 0.24455 (Simulation time: 0 hr 15 min 7 sec) 
Heartbeat CPU  0 instructions:  102000000 cycles:  279578348 heartbeat IPC: 0.42387 cumulative IPC: 0.20326 (Simulation time: 0 hr 15 min 11 sec) 
Heartbeat CPU  1 instructions:  117000001 cycles:  280206616 heartbeat IPC: 0.21489 cumulative IPC: 0.26100 (Simulation time: 0 hr 15 min 13 sec) 
Heartbeat CPU  2 instructions:  136000000 cycles:  280407660 heartbeat IPC: 0.33770 cumulative IPC: 0.29869 (Simulation time: 0 hr 15 min 13 sec) 
Heartbeat CPU  3 instructions:  119000000 cycles:  280550555 heartbeat IPC: 0.45977 cumulative IPC: 0.24638 (Simulation time: 0 hr 15 min 14 sec) 
Heartbeat CPU  0 instructions:  103000001 cycles:  281849788 heartbeat IPC: 0.44025 cumulative IPC: 0.20535 (Simulation time: 0 hr 15 min 18 sec) 
Heartbeat CPU  2 instructions:  137000002 cycles:  283172255 heartbeat IPC: 0.36172 cumulative IPC: 0.29936 (Simulation time: 0 hr 15 min 22 sec) 
Heartbeat CPU  3 instructions:  120000000 cycles:  283699823 heartbeat IPC: 0.31753 cumulative IPC: 0.24724 (Simulation time: 0 hr 15 min 23 sec) 
Heartbeat CPU  0 instructions:  104000000 cycles:  283714532 heartbeat IPC: 0.53627 cumulative IPC: 0.20772 (Simulation time: 0 hr 15 min 23 sec) 
Heartbeat CPU  1 instructions:  118000000 cycles:  284842265 heartbeat IPC: 0.21572 cumulative IPC: 0.26020 (Simulation time: 0 hr 15 min 26 sec) 
Heartbeat CPU  0 instructions:  105000002 cycles:  285514842 heartbeat IPC: 0.55546 cumulative IPC: 0.21011 (Simulation time: 0 hr 15 min 28 sec) 
Heartbeat CPU  0 instructions:  106000003 cycles:  287047933 heartbeat IPC: 0.65228 cumulative IPC: 0.21269 (Simulation time: 0 hr 15 min 32 sec) 
Heartbeat CPU  2 instructions:  138000000 cycles:  287590431 heartbeat IPC: 0.22634 cumulative IPC: 0.29814 (Simulation time: 0 hr 15 min 33 sec) 
Heartbeat CPU  0 instructions:  107000000 cycles:  288531380 heartbeat IPC: 0.67410 cumulative IPC: 0.21527 (Simulation time: 0 hr 15 min 36 sec) 
Heartbeat CPU  3 instructions:  121000001 cycles:  288540887 heartbeat IPC: 0.20657 cumulative IPC: 0.24650 (Simulation time: 0 hr 15 min 36 sec) 
Heartbeat CPU  1 instructions:  119000001 cycles:  289438464 heartbeat IPC: 0.21757 cumulative IPC: 0.25946 (Simulation time: 0 hr 15 min 38 sec) 
Heartbeat CPU  0 instructions:  108000000 cycles:  290125300 heartbeat IPC: 0.62738 cumulative IPC: 0.21774 (Simulation time: 0 hr 15 min 40 sec) 
Heartbeat CPU  3 instructions:  122000000 cycles:  293308345 heartbeat IPC: 0.20976 cumulative IPC: 0.24585 (Simulation time: 0 hr 15 min 46 sec) 
Heartbeat CPU  2 instructions:  139000002 cycles:  293355021 heartbeat IPC: 0.17347 cumulative IPC: 0.29547 (Simulation time: 0 hr 15 min 46 sec) 
Heartbeat CPU  0 instructions:  109000003 cycles:  293665180 heartbeat IPC: 0.28250 cumulative IPC: 0.21859 (Simulation time: 0 hr 15 min 47 sec) 
Heartbeat CPU  1 instructions:  120000000 cycles:  294094128 heartbeat IPC: 0.21479 cumulative IPC: 0.25869 (Simulation time: 0 hr 15 min 47 sec) 
Heartbeat CPU  3 instructions:  123000002 cycles:  298050756 heartbeat IPC: 0.21086 cumulative IPC: 0.24524 (Simulation time: 0 hr 15 min 55 sec) 
Heartbeat CPU  0 instructions:  110000003 cycles:  298395435 heartbeat IPC: 0.21141 cumulative IPC: 0.21846 (Simulation time: 0 hr 15 min 55 sec) 
Heartbeat CPU  1 instructions:  121000000 cycles:  298762123 heartbeat IPC: 0.21422 cumulative IPC: 0.25794 (Simulation time: 0 hr 15 min 56 sec) 
Heartbeat CPU  2 instructions:  140000000 cycles:  299145907 heartbeat IPC: 0.17268 cumulative IPC: 0.29289 (Simulation time: 0 hr 15 min 57 sec) 
Heartbeat CPU  0 instructions:  111000003 cycles:  303287970 heartbeat IPC: 0.20439 cumulative IPC: 0.21822 (Simulation time: 0 hr 16 min 4 sec) 
Heartbeat CPU  1 instructions:  122000000 cycles:  303348309 heartbeat IPC: 0.21805 cumulative IPC: 0.25728 (Simulation time: 0 hr 16 min 4 sec) 
Heartbeat CPU  2 instructions:  141000003 cycles:  304905274 heartbeat IPC: 0.17363 cumulative IPC: 0.29045 (Simulation time: 0 hr 16 min 7 sec) 
Heartbeat CPU  3 instructions:  124000000 cycles:  305069195 heartbeat IPC: 0.14248 cumulative IPC: 0.24268 (Simulation time: 0 hr 16 min 7 sec) 
Heartbeat CPU  1 instructions:  123000002 cycles:  307979311 heartbeat IPC: 0.21594 cumulative IPC: 0.25661 (Simulation time: 0 hr 16 min 12 sec) 
Heartbeat CPU  0 instructions:  112000000 cycles:  308072803 heartbeat IPC: 0.20899 cumulative IPC: 0.21806 (Simulation time: 0 hr 16 min 12 sec) 
Heartbeat CPU  2 instructions:  142000000 cycles:  310575382 heartbeat IPC: 0.17636 cumulative IPC: 0.28819 (Simulation time: 0 hr 16 min 16 sec) 
Heartbeat CPU  0 instructions:  113000003 cycles:  312642611 heartbeat IPC: 0.21883 cumulative IPC: 0.21807 (Simulation time: 0 hr 16 min 20 sec) 
Heartbeat CPU  1 instructions:  124000000 cycles:  312789811 heartbeat IPC: 0.20788 cumulative IPC: 0.25580 (Simulation time: 0 hr 16 min 20 sec) 
Heartbeat CPU  3 instructions:  125000003 cycles:  313608380 heartbeat IPC: 0.11711 cumulative IPC: 0.23898 (Simulation time: 0 hr 16 min 22 sec) 
Heartbeat CPU  2 instructions:  143000001 cycles:  316237321 heartbeat IPC: 0.17662 cumulative IPC: 0.28603 (Simulation time: 0 hr 16 min 26 sec) 
Heartbeat CPU  0 instructions:  114000003 cycles:  317573907 heartbeat IPC: 0.20279 cumulative IPC: 0.21782 (Simulation time: 0 hr 16 min 28 sec) 
Heartbeat CPU  1 instructions:  125000002 cycles:  317643221 heartbeat IPC: 0.20604 cumulative IPC: 0.25498 (Simulation time: 0 hr 16 min 28 sec) 
Heartbeat CPU  2 instructions:  144000000 cycles:  321980959 heartbeat IPC: 0.17411 cumulative IPC: 0.28387 (Simulation time: 0 hr 16 min 36 sec) 
Heartbeat CPU  3 instructions:  126000003 cycles:  322333360 heartbeat IPC: 0.11461 cumulative IPC: 0.23534 (Simulation time: 0 hr 16 min 36 sec) 
Heartbeat CPU  1 instructions:  126000001 cycles:  322388598 heartbeat IPC: 0.21073 cumulative IPC: 0.25427 (Simulation time: 0 hr 16 min 36 sec) 
Heartbeat CPU  0 instructions:  115000002 cycles:  322406744 heartbeat IPC: 0.20692 cumulative IPC: 0.21764 (Simulation time: 0 hr 16 min 36 sec) 
Heartbeat CPU  1 instructions:  127000001 cycles:  327118487 heartbeat IPC: 0.21142 cumulative IPC: 0.25361 (Simulation time: 0 hr 16 min 45 sec) 
Heartbeat CPU  0 instructions:  116000000 cycles:  327124896 heartbeat IPC: 0.21195 cumulative IPC: 0.21755 (Simulation time: 0 hr 16 min 45 sec) 
Heartbeat CPU  2 instructions:  145000003 cycles:  327656087 heartbeat IPC: 0.17621 cumulative IPC: 0.28186 (Simulation time: 0 hr 16 min 46 sec) 
Heartbeat CPU  3 instructions:  127000000 cycles:  329956376 heartbeat IPC: 0.13118 cumulative IPC: 0.23275 (Simulation time: 0 hr 16 min 50 sec) 
Heartbeat CPU  0 instructions:  117000003 cycles:  331779414 heartbeat IPC: 0.21485 cumulative IPC: 0.21751 (Simulation time: 0 hr 16 min 53 sec) 
Heartbeat CPU  1 instructions:  128000000 cycles:  331884856 heartbeat IPC: 0.20980 cumulative IPC: 0.25293 (Simulation time: 0 hr 16 min 53 sec) 
Heartbeat CPU  2 instructions:  146000000 cycles:  333304426 heartbeat IPC: 0.17704 cumulative IPC: 0.27995 (Simulation time: 0 hr 16 min 55 sec) 
Heartbeat CPU  2 instructions:  147000001 cycles:  336142549 heartbeat IPC: 0.35235 cumulative IPC: 0.28061 (Simulation time: 0 hr 17 min 1 sec) 
Heartbeat CPU  0 instructions:  118000002 cycles:  336493364 heartbeat IPC: 0.21214 cumulative IPC: 0.21743 (Simulation time: 0 hr 17 min 2 sec) 
Heartbeat CPU  1 instructions:  129000002 cycles:  336752349 heartbeat IPC: 0.20544 cumulative IPC: 0.25219 (Simulation time: 0 hr 17 min 2 sec) 
Heartbeat CPU  3 instructions:  128000000 cycles:  338345279 heartbeat IPC: 0.11921 cumulative IPC: 0.22972 (Simulation time: 0 hr 17 min 6 sec) 
Heartbeat CPU  2 instructions:  148000000 cycles:  338423561 heartbeat IPC: 0.43840 cumulative IPC: 0.28175 (Simulation time: 0 hr 17 min 6 sec) 
Heartbeat CPU  2 instructions:  149000001 cycles:  340787690 heartbeat IPC: 0.42299 cumulative IPC: 0.28281 (Simulation time: 0 hr 17 min 11 sec) 
[...]
Core_0_L1I_acc_level_6 0
Core_0_L1I_acc_level_7 0
Core_0_L1I_acc_level_8 0
Core_0_L1I_acc_level_9 0

Core_0_L2C_total_access 9189237
Core_0_L2C_total_hit 7667193
Core_0_L2C_total_miss 1522044
Core_0_L2C_loads 7408894
Core_0_L2C_load_hit 6199298
Core_0_L2C_load_miss 1209596
Core_0_L2C_RFOs 694619
Core_0_L2C_RFO_hit 390945
Core_0_L2C_RFO_miss 303674
Core_0_L2C_prefetches 0
Core_0_L2C_prefetch_hit 0
Core_0_L2C_prefetch_miss 0
Core_0_L2C_writebacks 1085724
Core_0_L2C_writeback_hit 1076950
Core_0_L2C_writeback_miss 8774
Core_0_L2C_prefetch_requested 0
Core_0_L2C_prefetch_dropped 0
Core_0_L2C_prefetch_issued 0
Core_0_L2C_prefetch_filled 0
Core_0_L2C_prefetch_useful 0
Core_0_L2C_prefetch_useless 0
Core_0_L2C_prefetch_late 0
Core_0_L2C_average_miss_latency 123.71138

Core_0_L2C_rq_access 8104116
Core_0_L2C_rq_forward 0
Core_0_L2C_rq_merged 0
Core_0_L2C_rq_to_cache 8103513
Core_0_L2C_rq_full 0

Core_0_L2C_wq_access 1085724
Core_0_L2C_wq_forward 603
Core_0_L2C_wq_merged 0
Core_0_L2C_wq_to_cache 1085724
Core_0_L2C_wq_full 0

Core_0_L2C_pq_access 0
Core_0_L2C_pq_forward 0
Core_0_L2C_pq_merged 0
Core_0_L2C_pq_to_cache 0
Core_0_L2C_pq_full 0

Core_0_L2C_acc_epochs 191112
Core_0_L2C_acc_level_0 191112
Core_0_L2C_acc_level_1 0
Core_0_L2C_acc_level_2 0
Core_0_L2C_acc_level_3 0
Core_0_L2C_acc_level_4 0
Core_0_L2C_acc_level_5 0
Core_0_L2C_acc_level_6 0
Core_0_L2C_acc_level_7 0
Core_0_L2C_acc_level_8 0
Core_0_L2C_acc_level_9 0

Core_0_LLC_total_access 2000539
Core_0_LLC_total_hit 1346476
Core_0_LLC_total_miss 654063
Core_0_LLC_loads 1209595
Core_0_LLC_load_hit 739251
Core_0_LLC_load_miss 470344
Core_0_LLC_RFOs 303666
Core_0_LLC_RFO_hit 173929
Core_0_LLC_RFO_miss 129737
Core_0_LLC_prefetches 0
Core_0_LLC_prefetch_hit 0
Core_0_LLC_prefetch_miss 0
Core_0_LLC_writebacks 487278
Core_0_LLC_writeback_hit 433296
Core_0_LLC_writeback_miss 53982
Core_0_LLC_prefetch_requested 0
Core_0_LLC_prefetch_dropped 0
Core_0_LLC_prefetch_issued 0
Core_0_LLC_prefetch_filled 0
Core_0_LLC_prefetch_useful 0
Core_0_LLC_prefetch_useless 0
Core_0_LLC_prefetch_late 0
Core_0_LLC_average_miss_latency 889.03701

Core_0_LLC_rq_access 6821175
Core_0_LLC_rq_forward 0
Core_0_LLC_rq_merged 0
Core_0_LLC_rq_to_cache 6821115
Core_0_LLC_rq_full 0

Core_0_LLC_wq_access 1738226
Core_0_LLC_wq_forward 60
Core_0_LLC_wq_merged 0
Core_0_LLC_wq_to_cache 1738226
Core_0_LLC_wq_full 0

Core_0_LLC_pq_access 0
Core_0_LLC_pq_forward 0
Core_0_LLC_pq_merged 0
Core_0_LLC_pq_to_cache 0
Core_0_LLC_pq_full 0

Core_0_LLC_acc_epochs 742797
Core_0_LLC_acc_level_0 742797
Core_0_LLC_acc_level_1 0
Core_0_LLC_acc_level_2 0
Core_0_LLC_acc_level_3 0
Core_0_LLC_acc_level_4 0
Core_0_LLC_acc_level_5 0
Core_0_LLC_acc_level_6 0
Core_0_LLC_acc_level_7 0
Core_0_LLC_acc_level_8 0
Core_0_LLC_acc_level_9 0

Core_0_major_page_fault 0
Core_0_minor_page_fault 17423

Core_1_instructions 150000002
Core_1_cycles 621068440
Core_1_IPC 0.24152

Core_1_branch_prediction_accuracy 97.68037
Core_1_branch_MPKI 3.98422
Core_1_average_ROB_occupancy_at_mispredict 80.55153

Core_1_L1D_total_access 18397294
Core_1_L1D_total_hit 15791429
Core_1_L1D_total_miss 2605865
Core_1_L1D_loads 11170972
Core_1_L1D_load_hit 9119123
Core_1_L1D_load_miss 2051849
Core_1_L1D_RFOs 7226322
Core_1_L1D_RFO_hit 6672306
Core_1_L1D_RFO_miss 554016
Core_1_L1D_prefetches 0
Core_1_L1D_prefetch_hit 0
Core_1_L1D_prefetch_miss 0
Core_1_L1D_writebacks 0
Core_1_L1D_writeback_hit 0
Core_1_L1D_writeback_miss 0
Core_1_L1D_prefetch_requested 0
Core_1_L1D_prefetch_dropped 0
Core_1_L1D_prefetch_issued 0
Core_1_L1D_prefetch_filled 0
Core_1_L1D_prefetch_useful 0
Core_1_L1D_prefetch_useless 0
Core_1_L1D_prefetch_late 0
Core_1_L1D_average_miss_latency 147.59787

Core_1_L1D_rq_access 28943905
Core_1_L1D_rq_forward 0
Core_1_L1D_rq_merged 13321585
Core_1_L1D_rq_to_cache 15620359
Core_1_L1D_rq_full 0

Core_1_L1D_wq_access 11263441
Core_1_L1D_wq_forward 1961
Core_1_L1D_wq_merged 41979
Core_1_L1D_wq_to_cache 11221462
Core_1_L1D_wq_full 16332

Core_1_L1D_pq_access 0
Core_1_L1D_pq_forward 0
Core_1_L1D_pq_merged 0
Core_1_L1D_pq_to_cache 0
Core_1_L1D_pq_full 0

Core_1_L1D_acc_epochs 249444
Core_1_L1D_acc_level_0 249444
Core_1_L1D_acc_level_1 0
Core_1_L1D_acc_level_2 0
Core_1_L1D_acc_level_3 0
Core_1_L1D_acc_level_4 0
Core_1_L1D_acc_level_5 0
Core_1_L1D_acc_level_6 0
Core_1_L1D_acc_level_7 0
Core_1_L1D_acc_level_8 0
Core_1_L1D_acc_level_9 0

Core_1_L1I_total_access 31149076
Core_1_L1I_total_hit 27317085
Core_1_L1I_total_miss 3831991
Core_1_L1I_loads 31149076
Core_1_L1I_load_hit 27317085
Core_1_L1I_load_miss 3831991
Core_1_L1I_RFOs 0
Core_1_L1I_RFO_hit 0
Core_1_L1I_RFO_miss 0
Core_1_L1I_prefetches 0
Core_1_L1I_prefetch_hit 0
Core_1_L1I_prefetch_miss 0
Core_1_L1I_writebacks 0
Core_1_L1I_writeback_hit 0
Core_1_L1I_writeback_miss 0
Core_1_L1I_prefetch_requested 0
Core_1_L1I_prefetch_dropped 0
Core_1_L1I_prefetch_issued 0
Core_1_L1I_prefetch_filled 0
Core_1_L1I_prefetch_useful 0
Core_1_L1I_prefetch_useless 0
Core_1_L1I_prefetch_late 0
Core_1_L1I_average_miss_latency 105.14592

Core_1_L1I_rq_access 180787044
Core_1_L1I_rq_forward 0
Core_1_L1I_rq_merged 140630990
Core_1_L1I_rq_to_cache 40156054
Core_1_L1I_rq_full 0

Core_1_L1I_wq_access 0
Core_1_L1I_wq_forward 0
Core_1_L1I_wq_merged 0
Core_1_L1I_wq_to_cache 0
Core_1_L1I_wq_full 0

Core_1_L1I_pq_access 0
Core_1_L1I_pq_forward 0
Core_1_L1I_pq_merged 0
Core_1_L1I_pq_to_cache 0
Core_1_L1I_pq_full 0

Core_1_L1I_acc_epochs 249444
Core_1_L1I_acc_level_0 249444
Core_1_L1I_acc_level_1 0
Core_1_L1I_acc_level_2 0
Core_1_L1I_acc_level_3 0
Core_1_L1I_acc_level_4 0
Core_1_L1I_acc_level_5 0
Core_1_L1I_acc_level_6 0
Core_1_L1I_acc_level_7 0
Core_1_L1I_acc_level_8 0
Core_1_L1I_acc_level_9 0

Core_1_L2C_total_access 7290871
Core_1_L2C_total_hit 5770454
Core_1_L2C_total_miss 1520417
Core_1_L2C_loads 5883709
Core_1_L2C_load_hit 4626700
Core_1_L2C_load_miss 1257009
Core_1_L2C_RFOs 553798
Core_1_L2C_RFO_hit 297518
Core_1_L2C_RFO_miss 256280
Core_1_L2C_prefetches 0
Core_1_L2C_prefetch_hit 0
Core_1_L2C_prefetch_miss 0
Core_1_L2C_writebacks 853364
Core_1_L2C_writeback_hit 846236
Core_1_L2C_writeback_miss 7128
Core_1_L2C_prefetch_requested 0
Core_1_L2C_prefetch_dropped 0
Core_1_L2C_prefetch_issued 0
Core_1_L2C_prefetch_filled 0
Core_1_L2C_prefetch_useful 0
Core_1_L2C_prefetch_useless 0
Core_1_L2C_prefetch_late 0
Core_1_L2C_average_miss_latency 159.04129

Core_1_L2C_rq_access 7816267
Core_1_L2C_rq_forward 0
Core_1_L2C_rq_merged 0
Core_1_L2C_rq_to_cache 7815826
Core_1_L2C_rq_full 0

Core_1_L2C_wq_access 1016182
Core_1_L2C_wq_forward 441
Core_1_L2C_wq_merged 0
Core_1_L2C_wq_to_cache 1016182
Core_1_L2C_wq_full 0

Core_1_L2C_pq_access 0
Core_1_L2C_pq_forward 0
Core_1_L2C_pq_merged 0
Core_1_L2C_pq_to_cache 0
Core_1_L2C_pq_full 0

Core_1_L2C_acc_epochs 249444
Core_1_L2C_acc_level_0 249444
Core_1_L2C_acc_level_1 0
Core_1_L2C_acc_level_2 0
Core_1_L2C_acc_level_3 0
Core_1_L2C_acc_level_4 0
Core_1_L2C_acc_level_5 0
Core_1_L2C_acc_level_6 0
Core_1_L2C_acc_level_7 0
Core_1_L2C_acc_level_8 0
Core_1_L2C_acc_level_9 0

Core_1_LLC_total_access 1913078
Core_1_LLC_total_hit 981754
Core_1_LLC_total_miss 931324
Core_1_LLC_loads 1257007
Core_1_LLC_load_hit 506218
Core_1_LLC_load_miss 750789
Core_1_LLC_RFOs 256269
Core_1_LLC_RFO_hit 136864
Core_1_LLC_RFO_miss 119405
Core_1_LLC_prefetches 0
Core_1_LLC_prefetch_hit 0
Core_1_LLC_prefetch_miss 0
Core_1_LLC_writebacks 399802
Core_1_LLC_writeback_hit 338672
Core_1_LLC_writeback_miss 61130
Core_1_LLC_prefetch_requested 0
Core_1_LLC_prefetch_dropped 0
Core_1_LLC_prefetch_issued 0
Core_1_LLC_prefetch_filled 0
Core_1_LLC_prefetch_useful 0
Core_1_LLC_prefetch_useless 0
Core_1_LLC_prefetch_late 0
Core_1_LLC_average_miss_latency 624.36511

Core_1_LLC_rq_access 6821175
Core_1_LLC_rq_forward 0
Core_1_LLC_rq_merged 0
Core_1_LLC_rq_to_cache 6821115
Core_1_LLC_rq_full 0

Core_1_LLC_wq_access 1738226
Core_1_LLC_wq_forward 60
Core_1_LLC_wq_merged 0
Core_1_LLC_wq_to_cache 1738226
Core_1_LLC_wq_full 0

Core_1_LLC_pq_access 0
Core_1_LLC_pq_forward 0
Core_1_LLC_pq_merged 0
Core_1_LLC_pq_to_cache 0
Core_1_LLC_pq_full 0

Core_1_LLC_acc_epochs 742797
Core_1_LLC_acc_level_0 742797
Core_1_LLC_acc_level_1 0
Core_1_LLC_acc_level_2 0
Core_1_LLC_acc_level_3 0
Core_1_LLC_acc_level_4 0
Core_1_LLC_acc_level_5 0
Core_1_LLC_acc_level_6 0
Core_1_LLC_acc_level_7 0
Core_1_LLC_acc_level_8 0
Core_1_LLC_acc_level_9 0

Core_1_major_page_fault 0
Core_1_minor_page_fault 19035

Core_2_instructions 150000000
Core_2_cycles 508626822
Core_2_IPC 0.29491

Core_2_branch_prediction_accuracy 97.83065
Core_2_branch_MPKI 3.18303
Core_2_average_ROB_occupancy_at_mispredict 76.96631

Core_2_L1D_total_access 12163903
Core_2_L1D_total_hit 10270298
Core_2_L1D_total_miss 1893605
Core_2_L1D_loads 8207311
Core_2_L1D_load_hit 6594433
Core_2_L1D_load_miss 1612878
Core_2_L1D_RFOs 3956592
Core_2_L1D_RFO_hit 3675865
Core_2_L1D_RFO_miss 280727
Core_2_L1D_prefetches 0
Core_2_L1D_prefetch_hit 0
Core_2_L1D_prefetch_miss 0
Core_2_L1D_writebacks 0
Core_2_L1D_writeback_hit 0
Core_2_L1D_writeback_miss 0
Core_2_L1D_prefetch_requested 0
Core_2_L1D_prefetch_dropped 0
Core_2_L1D_prefetch_issued 0
Core_2_L1D_prefetch_filled 0
Core_2_L1D_prefetch_useful 0
Core_2_L1D_prefetch_useless 0
Core_2_L1D_prefetch_late 0
Core_2_L1D_average_miss_latency 201.83345

Core_2_L1D_rq_access 30952736
Core_2_L1D_rq_forward 0
Core_2_L1D_rq_merged 14561785
Core_2_L1D_rq_to_cache 16388126
Core_2_L1D_rq_full 0

Core_2_L1D_wq_access 7407554
Core_2_L1D_wq_forward 2825
Core_2_L1D_wq_merged 25791
Core_2_L1D_wq_to_cache 7381763
Core_2_L1D_wq_full 5380

Core_2_L1D_pq_access 0
Core_2_L1D_pq_forward 0
Core_2_L1D_pq_merged 0
Core_2_L1D_pq_to_cache 0
Core_2_L1D_pq_full 0

Core_2_L1D_acc_epochs 324243
Core_2_L1D_acc_level_0 324243
Core_2_L1D_acc_level_1 0
Core_2_L1D_acc_level_2 0
Core_2_L1D_acc_level_3 0
Core_2_L1D_acc_level_4 0
Core_2_L1D_acc_level_5 0
Core_2_L1D_acc_level_6 0
Core_2_L1D_acc_level_7 0
Core_2_L1D_acc_level_8 0
Core_2_L1D_acc_level_9 0

Core_2_L1I_total_access 27829702
Core_2_L1I_total_hit 26124474
Core_2_L1I_total_miss 1705228
Core_2_L1I_loads 27829702
Core_2_L1I_load_hit 26124474
Core_2_L1I_load_miss 1705228
Core_2_L1I_RFOs 0
Core_2_L1I_RFO_hit 0
Core_2_L1I_RFO_miss 0
Core_2_L1I_prefetches 0
Core_2_L1I_prefetch_hit 0
Core_2_L1I_prefetch_miss 0
Core_2_L1I_writebacks 0
Core_2_L1I_writeback_hit 0
Core_2_L1I_writeback_miss 0
Core_2_L1I_prefetch_requested 0
Core_2_L1I_prefetch_dropped 0
Core_2_L1I_prefetch_issued 0
Core_2_L1I_prefetch_filled 0
Core_2_L1I_prefetch_useful 0
Core_2_L1I_prefetch_useless 0
Core_2_L1I_prefetch_late 0
Core_2_L1I_average_miss_latency 138.52393

Core_2_L1I_rq_access 208457238
Core_2_L1I_rq_forward 0
Core_2_L1I_rq_merged 167998673
Core_2_L1I_rq_to_cache 40458565
Core_2_L1I_rq_full 0

Core_2_L1I_wq_access 0
Core_2_L1I_wq_forward 0
Core_2_L1I_wq_merged 0
Core_2_L1I_wq_to_cache 0
Core_2_L1I_wq_full 0

Core_2_L1I_pq_access 0
Core_2_L1I_pq_forward 0
Core_2_L1I_pq_merged 0
Core_2_L1I_pq_to_cache 0
Core_2_L1I_pq_full 0

Core_2_L1I_acc_epochs 324243
Core_2_L1I_acc_level_0 324243
Core_2_L1I_acc_level_1 0
Core_2_L1I_acc_level_2 0
Core_2_L1I_acc_level_3 0
Core_2_L1I_acc_level_4 0
Core_2_L1I_acc_level_5 0
Core_2_L1I_acc_level_6 0
Core_2_L1I_acc_level_7 0
Core_2_L1I_acc_level_8 0
Core_2_L1I_acc_level_9 0

Core_2_L2C_total_access 4121144
Core_2_L2C_total_hit 2784159
Core_2_L2C_total_miss 1336985
Core_2_L2C_loads 3318022
Core_2_L2C_load_hit 2085308
Core_2_L2C_load_miss 1232714
Core_2_L2C_RFOs 280596
Core_2_L2C_RFO_hit 181418
Core_2_L2C_RFO_miss 99178
Core_2_L2C_prefetches 0
Core_2_L2C_prefetch_hit 0
Core_2_L2C_prefetch_miss 0
Core_2_L2C_writebacks 522526
Core_2_L2C_writeback_hit 517433
Core_2_L2C_writeback_miss 5093
Core_2_L2C_prefetch_requested 0
Core_2_L2C_prefetch_dropped 0
Core_2_L2C_prefetch_issued 0
Core_2_L2C_prefetch_filled 0
Core_2_L2C_prefetch_useful 0
Core_2_L2C_prefetch_useless 0
Core_2_L2C_prefetch_late 0
Core_2_L2C_average_miss_latency 206.26487

Core_2_L2C_rq_access 5423448
Core_2_L2C_rq_forward 0
Core_2_L2C_rq_merged 0
Core_2_L2C_rq_to_cache 5423118
Core_2_L2C_rq_full 0

Core_2_L2C_wq_access 800643
Core_2_L2C_wq_forward 330
Core_2_L2C_wq_merged 0
Core_2_L2C_wq_to_cache 800643
Core_2_L2C_wq_full 0

Core_2_L2C_pq_access 0
Core_2_L2C_pq_forward 0
Core_2_L2C_pq_merged 0
Core_2_L2C_pq_to_cache 0
Core_2_L2C_pq_full 0

Core_2_L2C_acc_epochs 324243
Core_2_L2C_acc_level_0 324243
Core_2_L2C_acc_level_1 0
Core_2_L2C_acc_level_2 0
Core_2_L2C_acc_level_3 0
Core_2_L2C_acc_level_4 0
Core_2_L2C_acc_level_5 0
Core_2_L2C_acc_level_6 0
Core_2_L2C_acc_level_7 0
Core_2_L2C_acc_level_8 0
Core_2_L2C_acc_level_9 0

Core_2_LLC_total_access 1544456
Core_2_LLC_total_hit 550350
Core_2_LLC_total_miss 994106
Core_2_LLC_loads 1232705
Core_2_LLC_load_hit 310121
Core_2_LLC_load_miss 922584
Core_2_LLC_RFOs 99169
Core_2_LLC_RFO_hit 49860
Core_2_LLC_RFO_miss 49309
Core_2_LLC_prefetches 0
Core_2_LLC_prefetch_hit 0
Core_2_LLC_prefetch_miss 0
Core_2_LLC_writebacks 212582
Core_2_LLC_writeback_hit 190369
Core_2_LLC_writeback_miss 22213
Core_2_LLC_prefetch_requested 0
Core_2_LLC_prefetch_dropped 0
Core_2_LLC_prefetch_issued 0
Core_2_LLC_prefetch_filled 0
Core_2_LLC_prefetch_useful 0
Core_2_LLC_prefetch_useless 0
Core_2_LLC_prefetch_late 0
Core_2_LLC_average_miss_latency 584.93381

Core_2_LLC_rq_access 6821175
Core_2_LLC_rq_forward 0
Core_2_LLC_rq_merged 0
Core_2_LLC_rq_to_cache 6821115
Core_2_LLC_rq_full 0

Core_2_LLC_wq_access 1738226
Core_2_LLC_wq_forward 60
Core_2_LLC_wq_merged 0
Core_2_LLC_wq_to_cache 1738226
Core_2_LLC_wq_full 0

Core_2_LLC_pq_access 0
Core_2_LLC_pq_forward 0
Core_2_LLC_pq_merged 0
Core_2_LLC_pq_to_cache 0
Core_2_LLC_pq_full 0

Core_2_LLC_acc_epochs 742797
Core_2_LLC_acc_level_0 742797
Core_2_LLC_acc_level_1 0
Core_2_LLC_acc_level_2 0
Core_2_LLC_acc_level_3 0
Core_2_LLC_acc_level_4 0
Core_2_LLC_acc_level_5 0
Core_2_LLC_acc_level_6 0
Core_2_LLC_acc_level_7 0
Core_2_LLC_acc_level_8 0
Core_2_LLC_acc_level_9 0

Core_2_major_page_fault 0
Core_2_minor_page_fault 17714

Core_3_instructions 150000003
Core_3_cycles 718840190
Core_3_IPC 0.20867

Core_3_branch_prediction_accuracy 97.80796
Core_3_branch_MPKI 3.88045
Core_3_average_ROB_occupancy_at_mispredict 84.91130

Core_3_L1D_total_access 21155712
Core_3_L1D_total_hit 18347318
Core_3_L1D_total_miss 2808394
Core_3_L1D_loads 12617747
Core_3_L1D_load_hit 10392278
Core_3_L1D_load_miss 2225469
Core_3_L1D_RFOs 8537965
Core_3_L1D_RFO_hit 7955040
Core_3_L1D_RFO_miss 582925
Core_3_L1D_prefetches 0
Core_3_L1D_prefetch_hit 0
Core_3_L1D_prefetch_miss 0
Core_3_L1D_writebacks 0
Core_3_L1D_writeback_hit 0
Core_3_L1D_writeback_miss 0
Core_3_L1D_prefetch_requested 0
Core_3_L1D_prefetch_dropped 0
Core_3_L1D_prefetch_issued 0
Core_3_L1D_prefetch_filled 0
Core_3_L1D_prefetch_useful 0
Core_3_L1D_prefetch_useless 0
Core_3_L1D_prefetch_late 0
Core_3_L1D_average_miss_latency 133.18110

Core_3_L1D_rq_access 25392466
Core_3_L1D_rq_forward 0
Core_3_L1D_rq_merged 11167243
Core_3_L1D_rq_to_cache 14223139
Core_3_L1D_rq_full 0

Core_3_L1D_wq_access 10792990
Core_3_L1D_wq_forward 2084
Core_3_L1D_wq_merged 44427
Core_3_L1D_wq_to_cache 10748563
Core_3_L1D_wq_full 12340

Core_3_L1D_pq_access 0
Core_3_L1D_pq_forward 0
Core_3_L1D_pq_merged 0
Core_3_L1D_pq_to_cache 0
Core_3_L1D_pq_full 0

Core_3_L1D_acc_epochs 209151
Core_3_L1D_acc_level_0 209151
Core_3_L1D_acc_level_1 0
Core_3_L1D_acc_level_2 0
Core_3_L1D_acc_level_3 0
Core_3_L1D_acc_level_4 0
Core_3_L1D_acc_level_5 0
Core_3_L1D_acc_level_6 0
Core_3_L1D_acc_level_7 0
Core_3_L1D_acc_level_8 0
Core_3_L1D_acc_level_9 0

Core_3_L1I_total_access 32729662
Core_3_L1I_total_hit 28565816
Core_3_L1I_total_miss 4163846
Core_3_L1I_loads 32729662
Core_3_L1I_load_hit 28565816
Core_3_L1I_load_miss 4163846
Core_3_L1I_RFOs 0
Core_3_L1I_RFO_hit 0
Core_3_L1I_RFO_miss 0
Core_3_L1I_prefetches 0
Core_3_L1I_prefetch_hit 0
Core_3_L1I_prefetch_miss 0
Core_3_L1I_writebacks 0
Core_3_L1I_writeback_hit 0
Core_3_L1I_writeback_miss 0
Core_3_L1I_prefetch_requested 0
Core_3_L1I_prefetch_dropped 0
Core_3_L1I_prefetch_issued 0
Core_3_L1I_prefetch_filled 0
Core_3_L1I_prefetch_useful 0
Core_3_L1I_prefetch_useless 0
Core_3_L1I_prefetch_late 0
Core_3_L1I_average_miss_latency 85.84942

Core_3_L1I_rq_access 156296304
Core_3_L1I_rq_forward 0
Core_3_L1I_rq_merged 119986814
Core_3_L1I_rq_to_cache 36309490
Core_3_L1I_rq_full 0

Core_3_L1I_wq_access 0
Core_3_L1I_wq_forward 0
Core_3_L1I_wq_merged 0
Core_3_L1I_wq_to_cache 0
Core_3_L1I_wq_full 0

Core_3_L1I_pq_access 0
Core_3_L1I_pq_forward 0
Core_3_L1I_pq_merged 0
Core_3_L1I_pq_to_cache 0
Core_3_L1I_pq_full 0

Core_3_L1I_acc_epochs 209151
Core_3_L1I_acc_level_0 209151
Core_3_L1I_acc_level_1 0
Core_3_L1I_acc_level_2 0
Core_3_L1I_acc_level_3 0
Core_3_L1I_acc_level_4 0
Core_3_L1I_acc_level_5 0
Core_3_L1I_acc_level_6 0
Core_3_L1I_acc_level_7 0
Core_3_L1I_acc_level_8 0
Core_3_L1I_acc_level_9 0

Core_3_L2C_total_access 7929724
Core_3_L2C_total_hit 6296806
Core_3_L2C_total_miss 1632918
Core_3_L2C_loads 6388982
Core_3_L2C_load_hit 5015024
Core_3_L2C_load_miss 1373958
Core_3_L2C_RFOs 582601
Core_3_L2C_RFO_hit 330909
Core_3_L2C_RFO_miss 251692
Core_3_L2C_prefetches 0
Core_3_L2C_prefetch_hit 0
Core_3_L2C_prefetch_miss 0
Core_3_L2C_writebacks 958141
Core_3_L2C_writeback_hit 950873
Core_3_L2C_writeback_miss 7268
Core_3_L2C_prefetch_requested 0
Core_3_L2C_prefetch_dropped 0
Core_3_L2C_prefetch_issued 0
Core_3_L2C_prefetch_filled 0
Core_3_L2C_prefetch_useful 0
Core_3_L2C_prefetch_useless 0
Core_3_L2C_prefetch_late 0
Core_3_L2C_average_miss_latency 135.05558

Core_3_L2C_rq_access 7078595
Core_3_L2C_rq_forward 0
Core_3_L2C_rq_merged 0
Core_3_L2C_rq_to_cache 7077937
Core_3_L2C_rq_full 0

Core_3_L2C_wq_access 969773
Core_3_L2C_wq_forward 658
Core_3_L2C_wq_merged 0
Core_3_L2C_wq_to_cache 969773
Core_3_L2C_wq_full 0

Core_3_L2C_pq_access 0
Core_3_L2C_pq_forward 0
Core_3_L2C_pq_merged 0
Core_3_L2C_pq_to_cache 0
Core_3_L2C_pq_full 0

Core_3_L2C_acc_epochs 209151
Core_3_L2C_acc_level_0 209151
Core_3_L2C_acc_level_1 0
Core_3_L2C_acc_level_2 0
Core_3_L2C_acc_level_3 0
Core_3_L2C_acc_level_4 0
Core_3_L2C_acc_level_5 0
Core_3_L2C_acc_level_6 0
Core_3_L2C_acc_level_7 0
Core_3_L2C_acc_level_8 0
Core_3_L2C_acc_level_9 0

Core_3_LLC_total_access 2094828
Core_3_LLC_total_hit 1348688
Core_3_LLC_total_miss 746140
Core_3_LLC_loads 1373956
Core_3_LLC_load_hit 777647
Core_3_LLC_load_miss 596309
Core_3_LLC_RFOs 251686
Core_3_LLC_RFO_hit 154284
Core_3_LLC_RFO_miss 97402
Core_3_LLC_prefetches 0
Core_3_LLC_prefetch_hit 0
Core_3_LLC_prefetch_miss 0
Core_3_LLC_writebacks 469186
Core_3_LLC_writeback_hit 416757
Core_3_LLC_writeback_miss 52429
Core_3_LLC_prefetch_requested 0
Core_3_LLC_prefetch_dropped 0
Core_3_LLC_prefetch_issued 0
Core_3_LLC_prefetch_filled 0
Core_3_LLC_prefetch_useful 0
Core_3_LLC_prefetch_useless 0
Core_3_LLC_prefetch_late 0
Core_3_LLC_average_miss_latency 779.32588

Core_3_LLC_rq_access 6821175
Core_3_LLC_rq_forward 0
Core_3_LLC_rq_merged 0
Core_3_LLC_rq_to_cache 6821115
Core_3_LLC_rq_full 0

Core_3_LLC_wq_access 1738226
Core_3_LLC_wq_forward 60
Core_3_LLC_wq_merged 0
Core_3_LLC_wq_to_cache 1738226
Core_3_LLC_wq_full 0

Core_3_LLC_pq_access 0
Core_3_LLC_pq_forward 0
Core_3_LLC_pq_merged 0
Core_3_LLC_pq_to_cache 0
Core_3_LLC_pq_full 0

Core_3_LLC_acc_epochs 742797
Core_3_LLC_acc_level_0 742797
Core_3_LLC_acc_level_1 0
Core_3_LLC_acc_level_2 0
Core_3_LLC_acc_level_3 0
Core_3_LLC_acc_level_4 0
Core_3_LLC_acc_level_5 0
Core_3_LLC_acc_level_6 0
Core_3_LLC_acc_level_7 0
Core_3_LLC_acc_level_8 0
Core_3_LLC_acc_level_9 0

Core_3_major_page_fault 0
Core_3_minor_page_fault 15536

Channel_0_RQ_row_buffer_hit 625701
Channel_0_RQ_row_buffer_miss 1230569
Channel_0_WQ_row_buffer_hit 49052
Channel_0_WQ_row_buffer_miss 278678
Channel_0_WQ_full 0
Channel_0_dbus_congested 235220

Channel_1_RQ_row_buffer_hit 625457
Channel_1_RQ_row_buffer_miss 1227983
Channel_1_WQ_row_buffer_hit 49112
Channel_1_WQ_row_buffer_miss 276086
Channel_1_WQ_full 0
Channel_1_dbus_congested 232938

avg_congested_cycle 9

DRAM_bw_pochs 2971186
DRAM_bw_level_0 2874606
DRAM_bw_level_1 84348
DRAM_bw_level_2 11415
DRAM_bw_level_3 817
