*************************************************
   ChampSim Multicore Out-of-Order Simulator
   Last compiled: Mar 31 2025 20:14:32
*************************************************
parsing config file: /data3/config/spp_ppf_dev.ini

trace_0 /data3/STREAMING/traces/streaming_phase5_core0.trace.xz
trace_1 /data3/STREAMING/traces/streaming_phase5_core1.trace.xz
trace_2 /data3/STREAMING/traces/streaming_phase5_core2.trace.xz
trace_3 /data3/STREAMING/traces/streaming_phase5_core3.trace.xz
adding L2C_PREFETCHER: SPP_PPF_dev
Initialize SIGNATURE TABLE
ST_SET: 1
ST_WAY: 256
ST_TAG_BIT: 16
ST_TAG_MASK: ffff

Initialize PATTERN TABLE
PT_SET: 2048
PT_WAY: 4
SIG_DELTA_BIT: 7
C_SIG_BIT: 4
C_DELTA_BIT: 4

Initialize PREFETCH FILTER
FILTER_SET: 1024

Initialize PERCEPTRON
PERC_ENTRIES: 4096
PERC_FEATURES: 9
Initialize SIGNATURE TABLE
ST_SET: 1
ST_WAY: 256
ST_TAG_BIT: 16
ST_TAG_MASK: ffff

Initialize PATTERN TABLE
PT_SET: 2048
PT_WAY: 4
SIG_DELTA_BIT: 7
C_SIG_BIT: 4
C_DELTA_BIT: 4

Initialize PREFETCH FILTER
FILTER_SET: 1024

Initialize PERCEPTRON
PERC_ENTRIES: 4096
PERC_FEATURES: 9
PERC_THRESH_HI: -5
PERC_THRESH_LO: -15

adding L2C_PREFETCHER: SPP_PPF_dev
Initialize SIGNATURE TABLE
ST_SET: 1
ST_WAY: 256
ST_TAG_BIT: 16
ST_TAG_MASK: ffff

Initialize PATTERN TABLE
PT_SET: 2048
PT_WAY: 4
SIG_DELTA_BIT: 7
C_SIG_BIT: 4
C_DELTA_BIT: 4

Initialize PREFETCH FILTER
FILTER_SET: 1024

Initialize PERCEPTRON
PERC_ENTRIES: 4096
PERC_FEATURES: 9
Initialize SIGNATURE TABLE
ST_SET: 1
ST_WAY: 256
ST_TAG_BIT: 16
ST_TAG_MASK: ffff

Initialize PATTERN TABLE
PT_SET: 2048
PT_WAY: 4
SIG_DELTA_BIT: 7
C_SIG_BIT: 4
C_DELTA_BIT: 4

Initialize PREFETCH FILTER
FILTER_SET: 1024

Initialize PERCEPTRON
PERC_ENTRIES: 4096
PERC_FEATURES: 9
PERC_THRESH_HI: -5
PERC_THRESH_LO: -15

adding L2C_PREFETCHER: SPP_PPF_dev
Initialize SIGNATURE TABLE
ST_SET: 1
ST_WAY: 256
ST_TAG_BIT: 16
ST_TAG_MASK: ffff

Initialize PATTERN TABLE
PT_SET: 2048
PT_WAY: 4
SIG_DELTA_BIT: 7
C_SIG_BIT: 4
C_DELTA_BIT: 4

Initialize PREFETCH FILTER
FILTER_SET: 1024

Initialize PERCEPTRON
PERC_ENTRIES: 4096
PERC_FEATURES: 9
Initialize SIGNATURE TABLE
ST_SET: 1
ST_WAY: 256
ST_TAG_BIT: 16
ST_TAG_MASK: ffff

Initialize PATTERN TABLE
PT_SET: 2048
PT_WAY: 4
SIG_DELTA_BIT: 7
C_SIG_BIT: 4
C_DELTA_BIT: 4

Initialize PREFETCH FILTER
FILTER_SET: 1024

Initialize PERCEPTRON
PERC_ENTRIES: 4096
PERC_FEATURES: 9
PERC_THRESH_HI: -5
PERC_THRESH_LO: -15

adding L2C_PREFETCHER: SPP_PPF_dev
Initialize SIGNATURE TABLE
ST_SET: 1
ST_WAY: 256
ST_TAG_BIT: 16
ST_TAG_MASK: ffff

Initialize PATTERN TABLE
PT_SET: 2048
PT_WAY: 4
SIG_DELTA_BIT: 7
C_SIG_BIT: 4
C_DELTA_BIT: 4

Initialize PREFETCH FILTER
FILTER_SET: 1024

Initialize PERCEPTRON
PERC_ENTRIES: 4096
PERC_FEATURES: 9
Initialize SIGNATURE TABLE
ST_SET: 1
ST_WAY: 256
ST_TAG_BIT: 16
ST_TAG_MASK: ffff

Initialize PATTERN TABLE
PT_SET: 2048
PT_WAY: 4
SIG_DELTA_BIT: 7
C_SIG_BIT: 4
C_DELTA_BIT: 4

Initialize PREFETCH FILTER
FILTER_SET: 1024

Initialize PERCEPTRON
PERC_ENTRIES: 4096
PERC_FEATURES: 9
PERC_THRESH_HI: -5
PERC_THRESH_LO: -15

Initialize SHIP state
warmup_instructions 50000000
simulation_instructions 150000000
champsim_seed 8866
measure_ipc 0
measure_ipc_epoch 1000
measure_dram_bw 1
measure_dram_bw_epoch 256
measure_cache_acc 1
measure_cache_acc_epoch 1024
l1d_perfect 0
l2c_perfect 0
llc_perfect 0
l1d_semi_perfect 0
l2c_semi_perfect 0
llc_semi_perfect 0
semi_perfect_cache_page_buffer_size 64

num_cpus 4
cpu_freq 4000
dram_io_freq 2400
page_size 4096
block_size 64
max_read_per_cycle 8
max_fill_per_cycle 1
dram_channels 2
log2_dram_channels 1
dram_ranks 1
dram_banks 8
dram_rows 65536
dram_columns 128
dram_row_size 8
dram_size 8192
dram_pages 2097152

fetch_width 6
decode_width 6
exec_width 4
lq_width 2
sq_width 2
retire_width 4
scheduler_size 128
branch_mispredict_penalty 20
rob_size 256
lq_size 72
sq_size 56
num_instr_destinations_sparc 4
num_instr_destinations 2
num_instr_sources 4

itlb_set 16
itlb_way 8
itlb_rq_size 16
itlb_wq_size 16
itlb_pq_size 0
itlb_mshr_size 8
itlb_latency 1

dtlb_set 16
dtlb_way 4
dtlb_rq_size 16
dtlb_wq_size 16
dtlb_pq_size 0
dtlb_mshr_size 8
dtlb_latency 1

stlb_set 128
stlb_way 12
stlb_rq_size 32
stlb_wq_size 32
stlb_pq_size 0
stlb_mshr_size 16
stlb_latency 8

l1i_size 32
l1i_set 64
l1i_way 8
l1i_rq_size 64
l1i_wq_size 64
l1i_pq_size 8
l1i_mshr_size 8
l1i_latency 1

l1d_size 32
l1d_set 64
l1d_way 8
l1d_rq_size 64
l1d_wq_size 64
l1d_pq_size 8
l1d_mshr_size 16
l1d_latency 4

l2c_size 256
l2c_set 512
l2c_way 8
l2c_rq_size 32
l2c_wq_size 32
l2c_pq_size 32
l2c_mshr_size 32
l2c_latency 10

llc_size 8192
llc_set 8192
llc_way 16
llc_rq_size 128
llc_wq_size 128
llc_pq_size 128
llc_mshr_size 256
llc_latency 20

dram_channel_width 8
dram_wq_size 64
dram_rq_size 64
tRP 15
tRCD 15
tCAS 12.5
dram_dbus_turn_around_time 30
dram_write_high_wm 56
dram_write_low_wm 48
min_dram_writes_per_switch 16
dram_mtps 2400
dram_dbus_return_time 13


Heartbeat CPU  2 instructions:    1000001 cycles:     384926 heartbeat IPC: 2.59790 cumulative IPC: 2.59790 (Simulation time: 0 hr 0 min 5 sec) 
Heartbeat CPU  0 instructions:    1000003 cycles:     477367 heartbeat IPC: 2.09483 cumulative IPC: 2.09483 (Simulation time: 0 hr 0 min 6 sec) 
Heartbeat CPU  3 instructions:    1000003 cycles:     587814 heartbeat IPC: 1.70122 cumulative IPC: 1.70122 (Simulation time: 0 hr 0 min 8 sec) 
Heartbeat CPU  1 instructions:    1000000 cycles:     615041 heartbeat IPC: 1.62591 cumulative IPC: 1.62591 (Simulation time: 0 hr 0 min 8 sec) 
Heartbeat CPU  2 instructions:    2000001 cycles:     688066 heartbeat IPC: 3.29881 cumulative IPC: 2.90670 (Simulation time: 0 hr 0 min 9 sec) 
Heartbeat CPU  0 instructions:    2000003 cycles:     959634 heartbeat IPC: 2.07354 cumulative IPC: 2.08413 (Simulation time: 0 hr 0 min 13 sec) 
Heartbeat CPU  2 instructions:    3000002 cycles:     994522 heartbeat IPC: 3.26311 cumulative IPC: 3.01653 (Simulation time: 0 hr 0 min 14 sec) 
Heartbeat CPU  1 instructions:    2000002 cycles:    1129045 heartbeat IPC: 1.94551 cumulative IPC: 1.77141 (Simulation time: 0 hr 0 min 16 sec) 
Heartbeat CPU  3 instructions:    2000003 cycles:    1145052 heartbeat IPC: 1.79457 cumulative IPC: 1.74665 (Simulation time: 0 hr 0 min 16 sec) 
Heartbeat CPU  0 instructions:    3000002 cycles:    1434182 heartbeat IPC: 2.10727 cumulative IPC: 2.09179 (Simulation time: 0 hr 0 min 20 sec) 
Heartbeat CPU  2 instructions:    4000000 cycles:    1448723 heartbeat IPC: 2.20166 cumulative IPC: 2.76105 (Simulation time: 0 hr 0 min 20 sec) 
Heartbeat CPU  3 instructions:    3000000 cycles:    1631073 heartbeat IPC: 2.05752 cumulative IPC: 1.83928 (Simulation time: 0 hr 0 min 23 sec) 
Heartbeat CPU  1 instructions:    3000003 cycles:    1650383 heartbeat IPC: 1.91814 cumulative IPC: 1.81776 (Simulation time: 0 hr 0 min 23 sec) 
Heartbeat CPU  2 instructions:    5000002 cycles:    1767763 heartbeat IPC: 3.13441 cumulative IPC: 2.82843 (Simulation time: 0 hr 0 min 25 sec) 
Heartbeat CPU  0 instructions:    4000000 cycles:    1894448 heartbeat IPC: 2.17265 cumulative IPC: 2.11143 (Simulation time: 0 hr 0 min 27 sec) 
Heartbeat CPU  2 instructions:    6000001 cycles:    2066131 heartbeat IPC: 3.35156 cumulative IPC: 2.90398 (Simulation time: 0 hr 0 min 30 sec) 
Heartbeat CPU  3 instructions:    4000000 cycles:    2149858 heartbeat IPC: 1.92758 cumulative IPC: 1.86059 (Simulation time: 0 hr 0 min 31 sec) 
Heartbeat CPU  1 instructions:    4000000 cycles:    2218434 heartbeat IPC: 1.76040 cumulative IPC: 1.80307 (Simulation time: 0 hr 0 min 32 sec) 
Heartbeat CPU  2 instructions:    7000001 cycles:    2361286 heartbeat IPC: 3.38805 cumulative IPC: 2.96449 (Simulation time: 0 hr 0 min 35 sec) 
Heartbeat CPU  0 instructions:    5000002 cycles:    2384578 heartbeat IPC: 2.04028 cumulative IPC: 2.09681 (Simulation time: 0 hr 0 min 35 sec) 
Heartbeat CPU  3 instructions:    5000003 cycles:    2624213 heartbeat IPC: 2.10813 cumulative IPC: 1.90533 (Simulation time: 0 hr 0 min 39 sec) 
Heartbeat CPU  2 instructions:    8000000 cycles:    2706977 heartbeat IPC: 2.89275 cumulative IPC: 2.95533 (Simulation time: 0 hr 0 min 40 sec) 
Heartbeat CPU  1 instructions:    5000000 cycles:    2740762 heartbeat IPC: 1.91451 cumulative IPC: 1.82431 (Simulation time: 0 hr 0 min 41 sec) 
Heartbeat CPU  0 instructions:    6000003 cycles:    2829442 heartbeat IPC: 2.24788 cumulative IPC: 2.12056 (Simulation time: 0 hr 0 min 42 sec) 
Heartbeat CPU  3 instructions:    6000001 cycles:    3089065 heartbeat IPC: 2.15122 cumulative IPC: 1.94234 (Simulation time: 0 hr 0 min 45 sec) 
Heartbeat CPU  0 instructions:    7000000 cycles:    3209042 heartbeat IPC: 2.63434 cumulative IPC: 2.18134 (Simulation time: 0 hr 0 min 47 sec) 
Heartbeat CPU  1 instructions:    6000000 cycles:    3231369 heartbeat IPC: 2.03829 cumulative IPC: 1.85680 (Simulation time: 0 hr 0 min 47 sec) 
Heartbeat CPU  2 instructions:    9000001 cycles:    3452267 heartbeat IPC: 1.34176 cumulative IPC: 2.60698 (Simulation time: 0 hr 0 min 51 sec) 
Heartbeat CPU  3 instructions:    7000001 cycles:    3550229 heartbeat IPC: 2.16843 cumulative IPC: 1.97170 (Simulation time: 0 hr 0 min 52 sec) 
Heartbeat CPU  0 instructions:    8000000 cycles:    3559911 heartbeat IPC: 2.85007 cumulative IPC: 2.24725 (Simulation time: 0 hr 0 min 52 sec) 
Heartbeat CPU  1 instructions:    7000002 cycles:    3733637 heartbeat IPC: 1.99097 cumulative IPC: 1.87485 (Simulation time: 0 hr 0 min 55 sec) 
Heartbeat CPU  3 instructions:    8000000 cycles:    4014780 heartbeat IPC: 2.15261 cumulative IPC: 1.99264 (Simulation time: 0 hr 0 min 58 sec) 
Heartbeat CPU  0 instructions:    9000001 cycles:    4163422 heartbeat IPC: 1.65697 cumulative IPC: 2.16168 (Simulation time: 0 hr 1 min 0 sec) 
Heartbeat CPU  2 instructions:   10000002 cycles:    4181264 heartbeat IPC: 1.37175 cumulative IPC: 2.39162 (Simulation time: 0 hr 1 min 0 sec) 
Heartbeat CPU  1 instructions:    8000000 cycles:    4217308 heartbeat IPC: 2.06752 cumulative IPC: 1.89694 (Simulation time: 0 hr 1 min 1 sec) 
Heartbeat CPU  3 instructions:    9000000 cycles:    4544329 heartbeat IPC: 1.88840 cumulative IPC: 1.98049 (Simulation time: 0 hr 1 min 5 sec) 
Heartbeat CPU  0 instructions:   10000001 cycles:    4729255 heartbeat IPC: 1.76731 cumulative IPC: 2.11450 (Simulation time: 0 hr 1 min 8 sec) 
Heartbeat CPU  1 instructions:    9000003 cycles:    4774846 heartbeat IPC: 1.79361 cumulative IPC: 1.88488 (Simulation time: 0 hr 1 min 8 sec) 
Heartbeat CPU  2 instructions:   11000001 cycles:    4803841 heartbeat IPC: 1.60623 cumulative IPC: 2.28983 (Simulation time: 0 hr 1 min 9 sec) 
Heartbeat CPU  3 instructions:   10000000 cycles:    5062095 heartbeat IPC: 1.93137 cumulative IPC: 1.97547 (Simulation time: 0 hr 1 min 12 sec) 
Heartbeat CPU  0 instructions:   11000001 cycles:    5289340 heartbeat IPC: 1.78544 cumulative IPC: 2.07965 (Simulation time: 0 hr 1 min 15 sec) 
Heartbeat CPU  1 instructions:   10000001 cycles:    5328841 heartbeat IPC: 1.80507 cumulative IPC: 1.87658 (Simulation time: 0 hr 1 min 15 sec) 
Heartbeat CPU  2 instructions:   12000000 cycles:    5403176 heartbeat IPC: 1.66851 cumulative IPC: 2.22092 (Simulation time: 0 hr 1 min 16 sec) 
Heartbeat CPU  3 instructions:   11000001 cycles:    5605239 heartbeat IPC: 1.84113 cumulative IPC: 1.96245 (Simulation time: 0 hr 1 min 19 sec) 
Heartbeat CPU  0 instructions:   12000000 cycles:    5826104 heartbeat IPC: 1.86301 cumulative IPC: 2.05970 (Simulation time: 0 hr 1 min 22 sec) 
Heartbeat CPU  1 instructions:   11000003 cycles:    5838896 heartbeat IPC: 1.96058 cumulative IPC: 1.88392 (Simulation time: 0 hr 1 min 22 sec) 
Heartbeat CPU  2 instructions:   13000001 cycles:    5976875 heartbeat IPC: 1.74308 cumulative IPC: 2.17505 (Simulation time: 0 hr 1 min 24 sec) 
Heartbeat CPU  3 instructions:   12000000 cycles:    6108879 heartbeat IPC: 1.98554 cumulative IPC: 1.96435 (Simulation time: 0 hr 1 min 26 sec) 
Heartbeat CPU  2 instructions:   14000003 cycles:    6289651 heartbeat IPC: 3.19718 cumulative IPC: 2.22588 (Simulation time: 0 hr 1 min 29 sec) 
Heartbeat CPU  0 instructions:   13000003 cycles:    6339324 heartbeat IPC: 1.94849 cumulative IPC: 2.05069 (Simulation time: 0 hr 1 min 30 sec) 
Heartbeat CPU  1 instructions:   12000000 cycles:    6342898 heartbeat IPC: 1.98411 cumulative IPC: 1.89188 (Simulation time: 0 hr 1 min 30 sec) 
Heartbeat CPU  2 instructions:   15000003 cycles:    6593988 heartbeat IPC: 3.28583 cumulative IPC: 2.27480 (Simulation time: 0 hr 1 min 34 sec) 
Heartbeat CPU  3 instructions:   13000002 cycles:    6637618 heartbeat IPC: 1.89130 cumulative IPC: 1.95853 (Simulation time: 0 hr 1 min 35 sec) 
Heartbeat CPU  0 instructions:   14000000 cycles:    6807682 heartbeat IPC: 2.13511 cumulative IPC: 2.05650 (Simulation time: 0 hr 1 min 38 sec) 
Heartbeat CPU  1 instructions:   13000003 cycles:    6879098 heartbeat IPC: 1.86498 cumulative IPC: 1.88978 (Simulation time: 0 hr 1 min 39 sec) 
Heartbeat CPU  2 instructions:   16000000 cycles:    6898285 heartbeat IPC: 3.28625 cumulative IPC: 2.31942 (Simulation time: 0 hr 1 min 39 sec) 
Heartbeat CPU  3 instructions:   14000000 cycles:    7106820 heartbeat IPC: 2.13127 cumulative IPC: 1.96994 (Simulation time: 0 hr 1 min 42 sec) 
Heartbeat CPU  2 instructions:   17000003 cycles:    7201363 heartbeat IPC: 3.29949 cumulative IPC: 2.36066 (Simulation time: 0 hr 1 min 44 sec) 
Heartbeat CPU  0 instructions:   15000002 cycles:    7326263 heartbeat IPC: 1.92834 cumulative IPC: 2.04743 (Simulation time: 0 hr 1 min 46 sec) 
Heartbeat CPU  1 instructions:   14000001 cycles:    7392512 heartbeat IPC: 1.94774 cumulative IPC: 1.89381 (Simulation time: 0 hr 1 min 47 sec) 
Heartbeat CPU  2 instructions:   18000002 cycles:    7481472 heartbeat IPC: 3.57004 cumulative IPC: 2.40594 (Simulation time: 0 hr 1 min 49 sec) 
Heartbeat CPU  3 instructions:   15000003 cycles:    7572871 heartbeat IPC: 2.14569 cumulative IPC: 1.98076 (Simulation time: 0 hr 1 min 50 sec) 
Heartbeat CPU  2 instructions:   19000003 cycles:    7754290 heartbeat IPC: 3.66545 cumulative IPC: 2.45026 (Simulation time: 0 hr 1 min 53 sec) 
Heartbeat CPU  0 instructions:   16000000 cycles:    7801088 heartbeat IPC: 2.10603 cumulative IPC: 2.05100 (Simulation time: 0 hr 1 min 54 sec) 
Heartbeat CPU  1 instructions:   15000002 cycles:    7855362 heartbeat IPC: 2.16053 cumulative IPC: 1.90952 (Simulation time: 0 hr 1 min 55 sec) 
Heartbeat CPU  2 instructions:   20000000 cycles:    8032475 heartbeat IPC: 3.59472 cumulative IPC: 2.48989 (Simulation time: 0 hr 1 min 58 sec) 
Heartbeat CPU  3 instructions:   16000000 cycles:    8050975 heartbeat IPC: 2.09159 cumulative IPC: 1.98734 (Simulation time: 0 hr 1 min 58 sec) 
Heartbeat CPU  0 instructions:   17000000 cycles:    8299523 heartbeat IPC: 2.00628 cumulative IPC: 2.04831 (Simulation time: 0 hr 2 min 2 sec) 
Heartbeat CPU  2 instructions:   21000001 cycles:    8308803 heartbeat IPC: 3.61889 cumulative IPC: 2.52744 (Simulation time: 0 hr 2 min 3 sec) 
Heartbeat CPU  1 instructions:   16000000 cycles:    8315940 heartbeat IPC: 2.17118 cumulative IPC: 1.92402 (Simulation time: 0 hr 2 min 3 sec) 
Heartbeat CPU  3 instructions:   17000003 cycles:    8539492 heartbeat IPC: 2.04702 cumulative IPC: 1.99075 (Simulation time: 0 hr 2 min 6 sec) 
Heartbeat CPU  1 instructions:   17000001 cycles:    8769359 heartbeat IPC: 2.20547 cumulative IPC: 1.93857 (Simulation time: 0 hr 2 min 9 sec) 
Heartbeat CPU  0 instructions:   18000000 cycles:    8814187 heartbeat IPC: 1.94302 cumulative IPC: 2.04216 (Simulation time: 0 hr 2 min 10 sec) 
Heartbeat CPU  2 instructions:   22000000 cycles:    8840170 heartbeat IPC: 1.88194 cumulative IPC: 2.48864 (Simulation time: 0 hr 2 min 10 sec) 
Heartbeat CPU  3 instructions:   18000003 cycles:    8941302 heartbeat IPC: 2.48874 cumulative IPC: 2.01313 (Simulation time: 0 hr 2 min 12 sec) 
Heartbeat CPU  1 instructions:   18000001 cycles:    9052626 heartbeat IPC: 3.53024 cumulative IPC: 1.98837 (Simulation time: 0 hr 2 min 13 sec) 
Heartbeat CPU  3 instructions:   19000002 cycles:    9217004 heartbeat IPC: 3.62710 cumulative IPC: 2.06141 (Simulation time: 0 hr 2 min 16 sec) 
Heartbeat CPU  0 instructions:   19000003 cycles:    9288855 heartbeat IPC: 2.10674 cumulative IPC: 2.04546 (Simulation time: 0 hr 2 min 17 sec) 
Heartbeat CPU  1 instructions:   19000000 cycles:    9332799 heartbeat IPC: 3.56922 cumulative IPC: 2.03583 (Simulation time: 0 hr 2 min 18 sec) 
Heartbeat CPU  3 instructions:   20000000 cycles:    9488501 heartbeat IPC: 3.68327 cumulative IPC: 2.10781 (Simulation time: 0 hr 2 min 20 sec) 
Heartbeat CPU  1 instructions:   20000000 cycles:    9669611 heartbeat IPC: 2.96902 cumulative IPC: 2.06834 (Simulation time: 0 hr 2 min 23 sec) 
Heartbeat CPU  2 instructions:   23000002 cycles:    9692387 heartbeat IPC: 1.17341 cumulative IPC: 2.37300 (Simulation time: 0 hr 2 min 23 sec) 
Heartbeat CPU  0 instructions:   20000000 cycles:    9748096 heartbeat IPC: 2.17750 cumulative IPC: 2.05168 (Simulation time: 0 hr 2 min 24 sec) 
Heartbeat CPU  3 instructions:   21000000 cycles:    9765813 heartbeat IPC: 3.60605 cumulative IPC: 2.15036 (Simulation time: 0 hr 2 min 25 sec) 
Heartbeat CPU  1 instructions:   21000003 cycles:   10038157 heartbeat IPC: 2.71337 cumulative IPC: 2.09202 (Simulation time: 0 hr 2 min 29 sec) 
Heartbeat CPU  3 instructions:   22000002 cycles:   10115016 heartbeat IPC: 2.86367 cumulative IPC: 2.17498 (Simulation time: 0 hr 2 min 30 sec) 
Heartbeat CPU  0 instructions:   21000002 cycles:   10204445 heartbeat IPC: 2.19131 cumulative IPC: 2.05793 (Simulation time: 0 hr 2 min 31 sec) 
Heartbeat CPU  2 instructions:   24000000 cycles:   10306931 heartbeat IPC: 1.62722 cumulative IPC: 2.32853 (Simulation time: 0 hr 2 min 33 sec) 
Heartbeat CPU  1 instructions:   22000000 cycles:   10462536 heartbeat IPC: 2.35638 cumulative IPC: 2.10274 (Simulation time: 0 hr 2 min 35 sec) 
Heartbeat CPU  3 instructions:   23000000 cycles:   10651188 heartbeat IPC: 1.86507 cumulative IPC: 2.15938 (Simulation time: 0 hr 2 min 38 sec) 
Heartbeat CPU  0 instructions:   22000001 cycles:   10663713 heartbeat IPC: 2.17738 cumulative IPC: 2.06307 (Simulation time: 0 hr 2 min 38 sec) 
Heartbeat CPU  2 instructions:   25000003 cycles:   10765573 heartbeat IPC: 2.18036 cumulative IPC: 2.32222 (Simulation time: 0 hr 2 min 40 sec) 
Heartbeat CPU  1 instructions:   23000001 cycles:   10947641 heartbeat IPC: 2.06141 cumulative IPC: 2.10091 (Simulation time: 0 hr 2 min 43 sec) 
Heartbeat CPU  2 instructions:   26000003 cycles:   11074705 heartbeat IPC: 3.23486 cumulative IPC: 2.34769 (Simulation time: 0 hr 2 min 45 sec) 
Heartbeat CPU  0 instructions:   23000003 cycles:   11162489 heartbeat IPC: 2.00491 cumulative IPC: 2.06047 (Simulation time: 0 hr 2 min 46 sec) 
Heartbeat CPU  3 instructions:   24000000 cycles:   11167423 heartbeat IPC: 1.93710 cumulative IPC: 2.14911 (Simulation time: 0 hr 2 min 46 sec) 
Heartbeat CPU  2 instructions:   27000001 cycles:   11376711 heartbeat IPC: 3.31119 cumulative IPC: 2.37327 (Simulation time: 0 hr 2 min 50 sec) 
Heartbeat CPU  1 instructions:   24000000 cycles:   11393128 heartbeat IPC: 2.24473 cumulative IPC: 2.10653 (Simulation time: 0 hr 2 min 50 sec) 
Heartbeat CPU  3 instructions:   25000002 cycles:   11669666 heartbeat IPC: 1.99107 cumulative IPC: 2.14231 (Simulation time: 0 hr 2 min 54 sec) 
Heartbeat CPU  0 instructions:   24000000 cycles:   11702817 heartbeat IPC: 1.85072 cumulative IPC: 2.05079 (Simulation time: 0 hr 2 min 55 sec) 
Heartbeat CPU  2 instructions:   28000000 cycles:   11753640 heartbeat IPC: 2.65302 cumulative IPC: 2.38224 (Simulation time: 0 hr 2 min 55 sec) 
Heartbeat CPU  1 instructions:   25000000 cycles:   11887168 heartbeat IPC: 2.02413 cumulative IPC: 2.10311 (Simulation time: 0 hr 2 min 57 sec) 
Heartbeat CPU  3 instructions:   26000001 cycles:   12127712 heartbeat IPC: 2.18318 cumulative IPC: 2.14385 (Simulation time: 0 hr 3 min 1 sec) 
Heartbeat CPU  0 instructions:   25000001 cycles:   12198186 heartbeat IPC: 2.01870 cumulative IPC: 2.04949 (Simulation time: 0 hr 3 min 2 sec) 
Heartbeat CPU  1 instructions:   26000001 cycles:   12351406 heartbeat IPC: 2.15407 cumulative IPC: 2.10502 (Simulation time: 0 hr 3 min 5 sec) 
Heartbeat CPU  2 instructions:   29000002 cycles:   12364238 heartbeat IPC: 1.63774 cumulative IPC: 2.34547 (Simulation time: 0 hr 3 min 5 sec) 
Heartbeat CPU  3 instructions:   27000001 cycles:   12570056 heartbeat IPC: 2.26068 cumulative IPC: 2.14796 (Simulation time: 0 hr 3 min 8 sec) 
Heartbeat CPU  0 instructions:   26000002 cycles:   12655963 heartbeat IPC: 2.18447 cumulative IPC: 2.05437 (Simulation time: 0 hr 3 min 9 sec) 
Heartbeat CPU  1 instructions:   27000000 cycles:   12811968 heartbeat IPC: 2.17126 cumulative IPC: 2.10740 (Simulation time: 0 hr 3 min 12 sec) 
Heartbeat CPU  2 instructions:   30000000 cycles:   12952226 heartbeat IPC: 1.70071 cumulative IPC: 2.31620 (Simulation time: 0 hr 3 min 14 sec) 
Heartbeat CPU  3 instructions:   28000000 cycles:   13049094 heartbeat IPC: 2.08751 cumulative IPC: 2.14574 (Simulation time: 0 hr 3 min 16 sec) 
Heartbeat CPU  0 instructions:   27000003 cycles:   13100927 heartbeat IPC: 2.24738 cumulative IPC: 2.06092 (Simulation time: 0 hr 3 min 16 sec) 
Heartbeat CPU  1 instructions:   28000000 cycles:   13266595 heartbeat IPC: 2.19961 cumulative IPC: 2.11056 (Simulation time: 0 hr 3 min 19 sec) 
Heartbeat CPU  2 instructions:   31000002 cycles:   13519826 heartbeat IPC: 1.76181 cumulative IPC: 2.29293 (Simulation time: 0 hr 3 min 22 sec) 
Heartbeat CPU  0 instructions:   28000000 cycles:   13554075 heartbeat IPC: 2.20678 cumulative IPC: 2.06580 (Simulation time: 0 hr 3 min 22 sec) 
Heartbeat CPU  3 instructions:   29000000 cycles:   13606970 heartbeat IPC: 1.79251 cumulative IPC: 2.13126 (Simulation time: 0 hr 3 min 23 sec) 
Heartbeat CPU  1 instructions:   29000002 cycles:   13858853 heartbeat IPC: 1.68846 cumulative IPC: 2.09253 (Simulation time: 0 hr 3 min 26 sec) 
Heartbeat CPU  3 instructions:   30000001 cycles:   14046836 heartbeat IPC: 2.27342 cumulative IPC: 2.13571 (Simulation time: 0 hr 3 min 29 sec) 
Heartbeat CPU  2 instructions:   32000000 cycles:   14067717 heartbeat IPC: 1.82518 cumulative IPC: 2.27471 (Simulation time: 0 hr 3 min 29 sec) 
Heartbeat CPU  1 instructions:   30000002 cycles:   14375941 heartbeat IPC: 1.93391 cumulative IPC: 2.08682 (Simulation time: 0 hr 3 min 33 sec) 
Heartbeat CPU  0 instructions:   29000001 cycles:   14505916 heartbeat IPC: 1.05060 cumulative IPC: 1.99918 (Simulation time: 0 hr 3 min 34 sec) 
Heartbeat CPU  3 instructions:   31000000 cycles:   14517418 heartbeat IPC: 2.12503 cumulative IPC: 2.13537 (Simulation time: 0 hr 3 min 34 sec) 
Heartbeat CPU  2 instructions:   33000001 cycles:   14600569 heartbeat IPC: 1.87670 cumulative IPC: 2.26019 (Simulation time: 0 hr 3 min 36 sec) 
Heartbeat CPU  1 instructions:   31000000 cycles:   14869690 heartbeat IPC: 2.02532 cumulative IPC: 2.08478 (Simulation time: 0 hr 3 min 39 sec) 
Heartbeat CPU  3 instructions:   32000000 cycles:   14955899 heartbeat IPC: 2.28060 cumulative IPC: 2.13962 (Simulation time: 0 hr 3 min 40 sec) 
Heartbeat CPU  2 instructions:   34000002 cycles:   15147488 heartbeat IPC: 1.82843 cumulative IPC: 2.24460 (Simulation time: 0 hr 3 min 42 sec) 
Heartbeat CPU  1 instructions:   32000000 cycles:   15352936 heartbeat IPC: 2.06934 cumulative IPC: 2.08429 (Simulation time: 0 hr 3 min 45 sec) 
Heartbeat CPU  0 instructions:   30000000 cycles:   15400744 heartbeat IPC: 1.11753 cumulative IPC: 1.94796 (Simulation time: 0 hr 3 min 45 sec) 
Heartbeat CPU  3 instructions:   33000000 cycles:   15430592 heartbeat IPC: 2.10662 cumulative IPC: 2.13861 (Simulation time: 0 hr 3 min 46 sec) 
Heartbeat CPU  2 instructions:   35000002 cycles:   15719908 heartbeat IPC: 1.74697 cumulative IPC: 2.22648 (Simulation time: 0 hr 3 min 49 sec) 
Heartbeat CPU  1 instructions:   33000000 cycles:   15866407 heartbeat IPC: 1.94753 cumulative IPC: 2.07987 (Simulation time: 0 hr 3 min 52 sec) 
Heartbeat CPU  3 instructions:   34000001 cycles:   15892559 heartbeat IPC: 2.16466 cumulative IPC: 2.13937 (Simulation time: 0 hr 3 min 52 sec) 
Heartbeat CPU  0 instructions:   31000000 cycles:   16039457 heartbeat IPC: 1.56565 cumulative IPC: 1.93273 (Simulation time: 0 hr 3 min 54 sec) 
Heartbeat CPU  2 instructions:   36000000 cycles:   16281787 heartbeat IPC: 1.77974 cumulative IPC: 2.21106 (Simulation time: 0 hr 3 min 57 sec) 
Heartbeat CPU  1 instructions:   34000000 cycles:   16345369 heartbeat IPC: 2.08785 cumulative IPC: 2.08010 (Simulation time: 0 hr 3 min 58 sec) 
Heartbeat CPU  3 instructions:   35000001 cycles:   16432750 heartbeat IPC: 1.85120 cumulative IPC: 2.12989 (Simulation time: 0 hr 4 min 0 sec) 
Heartbeat CPU  0 instructions:   32000000 cycles:   16571047 heartbeat IPC: 1.88115 cumulative IPC: 1.93108 (Simulation time: 0 hr 4 min 2 sec) 
Heartbeat CPU  1 instructions:   35000000 cycles:   16841620 heartbeat IPC: 2.01511 cumulative IPC: 2.07818 (Simulation time: 0 hr 4 min 6 sec) 
Heartbeat CPU  2 instructions:   37000000 cycles:   16869366 heartbeat IPC: 1.70190 cumulative IPC: 2.19332 (Simulation time: 0 hr 4 min 6 sec) 
Heartbeat CPU  3 instructions:   36000000 cycles:   16938648 heartbeat IPC: 1.97668 cumulative IPC: 2.12532 (Simulation time: 0 hr 4 min 7 sec) 
Heartbeat CPU  0 instructions:   33000000 cycles:   17056907 heartbeat IPC: 2.05821 cumulative IPC: 1.93470 (Simulation time: 0 hr 4 min 9 sec) 
Heartbeat CPU  1 instructions:   36000000 cycles:   17351114 heartbeat IPC: 1.96273 cumulative IPC: 2.07479 (Simulation time: 0 hr 4 min 13 sec) 
Heartbeat CPU  3 instructions:   37000000 cycles:   17460924 heartbeat IPC: 1.91470 cumulative IPC: 2.11902 (Simulation time: 0 hr 4 min 15 sec) 
Heartbeat CPU  2 instructions:   38000000 cycles:   17466823 heartbeat IPC: 1.67376 cumulative IPC: 2.17555 (Simulation time: 0 hr 4 min 15 sec) 
Heartbeat CPU  0 instructions:   34000001 cycles:   17545364 heartbeat IPC: 2.04727 cumulative IPC: 1.93783 (Simulation time: 0 hr 4 min 16 sec) 
Heartbeat CPU  1 instructions:   37000000 cycles:   17880121 heartbeat IPC: 1.89033 cumulative IPC: 2.06934 (Simulation time: 0 hr 4 min 21 sec) 
Heartbeat CPU  2 instructions:   39000002 cycles:   18008605 heartbeat IPC: 1.84576 cumulative IPC: 2.16563 (Simulation time: 0 hr 4 min 22 sec) 
Heartbeat CPU  3 instructions:   38000002 cycles:   18010012 heartbeat IPC: 1.82121 cumulative IPC: 2.10994 (Simulation time: 0 hr 4 min 22 sec) 
Heartbeat CPU  0 instructions:   35000000 cycles:   18056790 heartbeat IPC: 1.95532 cumulative IPC: 1.93833 (Simulation time: 0 hr 4 min 23 sec) 
Heartbeat CPU  1 instructions:   38000001 cycles:   18379700 heartbeat IPC: 2.00169 cumulative IPC: 2.06750 (Simulation time: 0 hr 4 min 27 sec) 
Heartbeat CPU  3 instructions:   39000000 cycles:   18571474 heartbeat IPC: 1.78106 cumulative IPC: 2.09999 (Simulation time: 0 hr 4 min 30 sec) 
Heartbeat CPU  0 instructions:   36000000 cycles:   18619192 heartbeat IPC: 1.77809 cumulative IPC: 1.93349 (Simulation time: 0 hr 4 min 31 sec) 
Heartbeat CPU  2 instructions:   40000000 cycles:   18665326 heartbeat IPC: 1.52271 cumulative IPC: 2.14301 (Simulation time: 0 hr 4 min 31 sec) 
Heartbeat CPU  1 instructions:   39000000 cycles:   18892725 heartbeat IPC: 1.94922 cumulative IPC: 2.06429 (Simulation time: 0 hr 4 min 34 sec) 
Heartbeat CPU  3 instructions:   40000000 cycles:   19088128 heartbeat IPC: 1.93553 cumulative IPC: 2.09554 (Simulation time: 0 hr 4 min 37 sec) 
Heartbeat CPU  0 instructions:   37000003 cycles:   19107463 heartbeat IPC: 2.04805 cumulative IPC: 1.93642 (Simulation time: 0 hr 4 min 38 sec) 
Heartbeat CPU  2 instructions:   41000002 cycles:   19252368 heartbeat IPC: 1.70346 cumulative IPC: 2.12961 (Simulation time: 0 hr 4 min 40 sec) 
Heartbeat CPU  1 instructions:   40000000 cycles:   19393643 heartbeat IPC: 1.99633 cumulative IPC: 2.06253 (Simulation time: 0 hr 4 min 42 sec) 
Heartbeat CPU  3 instructions:   41000003 cycles:   19587050 heartbeat IPC: 2.00433 cumulative IPC: 2.09322 (Simulation time: 0 hr 4 min 45 sec) 
Heartbeat CPU  0 instructions:   38000000 cycles:   19632241 heartbeat IPC: 1.90556 cumulative IPC: 1.93559 (Simulation time: 0 hr 4 min 45 sec) 
Heartbeat CPU  2 instructions:   42000001 cycles:   19837287 heartbeat IPC: 1.70964 cumulative IPC: 2.11723 (Simulation time: 0 hr 4 min 48 sec) 
Heartbeat CPU  1 instructions:   41000000 cycles:   19888035 heartbeat IPC: 2.02269 cumulative IPC: 2.06154 (Simulation time: 0 hr 4 min 49 sec) 
Heartbeat CPU  3 instructions:   42000002 cycles:   20114539 heartbeat IPC: 1.89577 cumulative IPC: 2.08804 (Simulation time: 0 hr 4 min 52 sec) 
Heartbeat CPU  0 instructions:   39000002 cycles:   20162911 heartbeat IPC: 1.88441 cumulative IPC: 1.93424 (Simulation time: 0 hr 4 min 53 sec) 
Heartbeat CPU  1 instructions:   42000000 cycles:   20400179 heartbeat IPC: 1.95258 cumulative IPC: 2.05881 (Simulation time: 0 hr 4 min 56 sec) 
Heartbeat CPU  2 instructions:   43000000 cycles:   20417680 heartbeat IPC: 1.72297 cumulative IPC: 2.10602 (Simulation time: 0 hr 4 min 56 sec) 
Heartbeat CPU  3 instructions:   43000003 cycles:   20696883 heartbeat IPC: 1.71720 cumulative IPC: 2.07761 (Simulation time: 0 hr 5 min 0 sec) 
Heartbeat CPU  0 instructions:   40000000 cycles:   20718253 heartbeat IPC: 1.80069 cumulative IPC: 1.93066 (Simulation time: 0 hr 5 min 0 sec) 
Heartbeat CPU  1 instructions:   43000002 cycles:   20905382 heartbeat IPC: 1.97941 cumulative IPC: 2.05689 (Simulation time: 0 hr 5 min 3 sec) 
Heartbeat CPU  2 instructions:   44000000 cycles:   21006980 heartbeat IPC: 1.69693 cumulative IPC: 2.09454 (Simulation time: 0 hr 5 min 4 sec) 
Heartbeat CPU  3 instructions:   44000000 cycles:   21218477 heartbeat IPC: 1.91719 cumulative IPC: 2.07366 (Simulation time: 0 hr 5 min 7 sec) 
Heartbeat CPU  0 instructions:   41000002 cycles:   21219505 heartbeat IPC: 1.99501 cumulative IPC: 1.93218 (Simulation time: 0 hr 5 min 7 sec) 
Heartbeat CPU  1 instructions:   44000000 cycles:   21415859 heartbeat IPC: 1.95895 cumulative IPC: 2.05455 (Simulation time: 0 hr 5 min 10 sec) 
Heartbeat CPU  2 instructions:   45000003 cycles:   21585051 heartbeat IPC: 1.72990 cumulative IPC: 2.08478 (Simulation time: 0 hr 5 min 12 sec) 
Heartbeat CPU  0 instructions:   42000001 cycles:   21725294 heartbeat IPC: 1.97711 cumulative IPC: 1.93323 (Simulation time: 0 hr 5 min 14 sec) 
Heartbeat CPU  3 instructions:   45000003 cycles:   21743307 heartbeat IPC: 1.90538 cumulative IPC: 2.06960 (Simulation time: 0 hr 5 min 14 sec) 
Heartbeat CPU  1 instructions:   45000002 cycles:   21942793 heartbeat IPC: 1.89777 cumulative IPC: 2.05079 (Simulation time: 0 hr 5 min 17 sec) 
Heartbeat CPU  2 instructions:   46000002 cycles:   22160740 heartbeat IPC: 1.73705 cumulative IPC: 2.07574 (Simulation time: 0 hr 5 min 20 sec) 
Heartbeat CPU  0 instructions:   43000001 cycles:   22250804 heartbeat IPC: 1.90291 cumulative IPC: 1.93251 (Simulation time: 0 hr 5 min 21 sec) 
Heartbeat CPU  3 instructions:   46000000 cycles:   22263444 heartbeat IPC: 1.92256 cumulative IPC: 2.06617 (Simulation time: 0 hr 5 min 22 sec) 
Heartbeat CPU  1 instructions:   46000002 cycles:   22444639 heartbeat IPC: 1.99264 cumulative IPC: 2.04949 (Simulation time: 0 hr 5 min 24 sec) 
Heartbeat CPU  2 instructions:   47000001 cycles:   22749698 heartbeat IPC: 1.69791 cumulative IPC: 2.06596 (Simulation time: 0 hr 5 min 28 sec) 
Heartbeat CPU  3 instructions:   47000001 cycles:   22767626 heartbeat IPC: 1.98341 cumulative IPC: 2.06433 (Simulation time: 0 hr 5 min 29 sec) 
Heartbeat CPU  0 instructions:   44000000 cycles:   22787191 heartbeat IPC: 1.86432 cumulative IPC: 1.93091 (Simulation time: 0 hr 5 min 29 sec) 
Heartbeat CPU  1 instructions:   47000002 cycles:   22982271 heartbeat IPC: 1.86001 cumulative IPC: 2.04505 (Simulation time: 0 hr 5 min 31 sec) 
Heartbeat CPU  3 instructions:   48000000 cycles:   23303041 heartbeat IPC: 1.86771 cumulative IPC: 2.05982 (Simulation time: 0 hr 5 min 36 sec) 
Heartbeat CPU  2 instructions:   48000000 cycles:   23314986 heartbeat IPC: 1.76901 cumulative IPC: 2.05876 (Simulation time: 0 hr 5 min 36 sec) 
Heartbeat CPU  0 instructions:   45000003 cycles:   23333413 heartbeat IPC: 1.83076 cumulative IPC: 1.92857 (Simulation time: 0 hr 5 min 36 sec) 
Heartbeat CPU  1 instructions:   48000000 cycles:   23502023 heartbeat IPC: 1.92399 cumulative IPC: 2.04238 (Simulation time: 0 hr 5 min 39 sec) 
Heartbeat CPU  2 instructions:   49000001 cycles:   23794803 heartbeat IPC: 2.08413 cumulative IPC: 2.05927 (Simulation time: 0 hr 5 min 43 sec) 
Heartbeat CPU  0 instructions:   46000002 cycles:   23842286 heartbeat IPC: 1.96512 cumulative IPC: 1.92935 (Simulation time: 0 hr 5 min 44 sec) 
Heartbeat CPU  3 instructions:   49000003 cycles:   23879162 heartbeat IPC: 1.73575 cumulative IPC: 2.05200 (Simulation time: 0 hr 5 min 44 sec) 
Heartbeat CPU  1 instructions:   49000001 cycles:   23987321 heartbeat IPC: 2.06059 cumulative IPC: 2.04275 (Simulation time: 0 hr 5 min 46 sec) 
Heartbeat CPU  2 instructions:   50000000 cycles:   24322691 heartbeat IPC: 1.89434 cumulative IPC: 2.05569 (Simulation time: 0 hr 5 min 51 sec) 
Heartbeat CPU  0 instructions:   47000001 cycles:   24348793 heartbeat IPC: 1.97430 cumulative IPC: 1.93028 (Simulation time: 0 hr 5 min 51 sec) 
Heartbeat CPU  3 instructions:   50000000 cycles:   24404700 heartbeat IPC: 1.90281 cumulative IPC: 2.04879 (Simulation time: 0 hr 5 min 52 sec) 
Heartbeat CPU  1 instructions:   50000000 cycles:   24445721 heartbeat IPC: 2.18150 cumulative IPC: 2.04535 (Simulation time: 0 hr 5 min 52 sec) 
Heartbeat CPU  0 instructions:   48000000 cycles:   24863871 heartbeat IPC: 1.94145 cumulative IPC: 1.93051 (Simulation time: 0 hr 5 min 58 sec) 
Heartbeat CPU  3 instructions:   51000001 cycles:   24937172 heartbeat IPC: 1.87803 cumulative IPC: 0.04010 (Simulation time: 0 hr 5 min 59 sec) 
Heartbeat CPU  1 instructions:   51000000 cycles:   24937874 heartbeat IPC: 2.03189 cumulative IPC: 0.04010 (Simulation time: 0 hr 5 min 59 sec) 
Heartbeat CPU  2 instructions:   51000002 cycles:   25028919 heartbeat IPC: 1.41598 cumulative IPC: 0.03995 (Simulation time: 0 hr 6 min 0 sec) 
Heartbeat CPU  0 instructions:   49000000 cycles:   25395850 heartbeat IPC: 1.87977 cumulative IPC: 1.92945 (Simulation time: 0 hr 6 min 5 sec) 
Heartbeat CPU  3 instructions:   52000000 cycles:   25468570 heartbeat IPC: 1.88183 cumulative IPC: 0.07853 (Simulation time: 0 hr 6 min 6 sec) 
Heartbeat CPU  1 instructions:   52000000 cycles:   25535544 heartbeat IPC: 1.67316 cumulative IPC: 0.07832 (Simulation time: 0 hr 6 min 7 sec) 
Heartbeat CPU  2 instructions:   52000000 cycles:   25626602 heartbeat IPC: 1.67312 cumulative IPC: 0.07804 (Simulation time: 0 hr 6 min 8 sec) 
Heartbeat CPU  0 instructions:   50000001 cycles:   25930816 heartbeat IPC: 1.86928 cumulative IPC: 1.92821 (Simulation time: 0 hr 6 min 12 sec) 

Warmup complete CPU  0 instructions:   50000001 cycles:   25930816 (Simulation time: 0 hr 6 min 12 sec) 
Warmup complete CPU  1 instructions:   52759909 cycles:   25930816 (Simulation time: 0 hr 6 min 12 sec) 
Warmup complete CPU  2 instructions:   52546135 cycles:   25930816 (Simulation time: 0 hr 6 min 12 sec) 
Warmup complete CPU  3 instructions:   52888857 cycles:   25930816 (Simulation time: 0 hr 6 min 12 sec) 

Heartbeat CPU  3 instructions:   53000003 cycles:   26454916 heartbeat IPC: 1.01385 cumulative IPC: 0.21207 (Simulation time: 0 hr 6 min 13 sec) 
Heartbeat CPU  1 instructions:   53000002 cycles:   27074204 heartbeat IPC: 0.64992 cumulative IPC: 0.20998 (Simulation time: 0 hr 6 min 14 sec) 
Heartbeat CPU  2 instructions:   53000000 cycles:   28632388 heartbeat IPC: 0.33269 cumulative IPC: 0.16800 (Simulation time: 0 hr 6 min 18 sec) 
Heartbeat CPU  0 instructions:   51000000 cycles:   30666122 heartbeat IPC: 0.21118 cumulative IPC: 0.21118 (Simulation time: 0 hr 6 min 22 sec) 
Heartbeat CPU  3 instructions:   54000002 cycles:   31217987 heartbeat IPC: 0.20995 cumulative IPC: 0.21016 (Simulation time: 0 hr 6 min 23 sec) 
Heartbeat CPU  1 instructions:   54000002 cycles:   31708118 heartbeat IPC: 0.21580 cumulative IPC: 0.21465 (Simulation time: 0 hr 6 min 24 sec) 
Heartbeat CPU  2 instructions:   54000001 cycles:   34564354 heartbeat IPC: 0.16858 cumulative IPC: 0.16840 (Simulation time: 0 hr 6 min 29 sec) 
Heartbeat CPU  0 instructions:   52000000 cycles:   35548867 heartbeat IPC: 0.20480 cumulative IPC: 0.20794 (Simulation time: 0 hr 6 min 31 sec) 
Heartbeat CPU  3 instructions:   55000001 cycles:   35953673 heartbeat IPC: 0.21116 cumulative IPC: 0.21063 (Simulation time: 0 hr 6 min 32 sec) 
Heartbeat CPU  1 instructions:   55000002 cycles:   36462624 heartbeat IPC: 0.21033 cumulative IPC: 0.21270 (Simulation time: 0 hr 6 min 33 sec) 
Heartbeat CPU  0 instructions:   53000000 cycles:   40323097 heartbeat IPC: 0.20946 cumulative IPC: 0.20844 (Simulation time: 0 hr 6 min 41 sec) 
Heartbeat CPU  2 instructions:   55000002 cycles:   40390177 heartbeat IPC: 0.17165 cumulative IPC: 0.16971 (Simulation time: 0 hr 6 min 41 sec) 
Heartbeat CPU  3 instructions:   56000000 cycles:   40640979 heartbeat IPC: 0.21334 cumulative IPC: 0.21150 (Simulation time: 0 hr 6 min 42 sec) 
Heartbeat CPU  1 instructions:   56000000 cycles:   41192486 heartbeat IPC: 0.21142 cumulative IPC: 0.21230 (Simulation time: 0 hr 6 min 43 sec) 
Heartbeat CPU  0 instructions:   54000002 cycles:   45000258 heartbeat IPC: 0.21381 cumulative IPC: 0.20976 (Simulation time: 0 hr 6 min 50 sec) 
Heartbeat CPU  3 instructions:   57000000 cycles:   45379319 heartbeat IPC: 0.21104 cumulative IPC: 0.21139 (Simulation time: 0 hr 6 min 51 sec) 
Heartbeat CPU  1 instructions:   57000001 cycles:   45909003 heartbeat IPC: 0.21202 cumulative IPC: 0.21224 (Simulation time: 0 hr 6 min 52 sec) 
Heartbeat CPU  2 instructions:   56000000 cycles:   46413360 heartbeat IPC: 0.16602 cumulative IPC: 0.16862 (Simulation time: 0 hr 6 min 53 sec) 
Heartbeat CPU  0 instructions:   55000000 cycles:   49666372 heartbeat IPC: 0.21431 cumulative IPC: 0.21065 (Simulation time: 0 hr 6 min 59 sec) 
Heartbeat CPU  3 instructions:   58000003 cycles:   50137029 heartbeat IPC: 0.21019 cumulative IPC: 0.21115 (Simulation time: 0 hr 7 min 0 sec) 
Heartbeat CPU  1 instructions:   58000000 cycles:   50583245 heartbeat IPC: 0.21394 cumulative IPC: 0.21256 (Simulation time: 0 hr 7 min 1 sec) 
Heartbeat CPU  2 instructions:   57000002 cycles:   52389073 heartbeat IPC: 0.16734 cumulative IPC: 0.16834 (Simulation time: 0 hr 7 min 5 sec) 
Heartbeat CPU  0 instructions:   56000000 cycles:   54352795 heartbeat IPC: 0.21338 cumulative IPC: 0.21110 (Simulation time: 0 hr 7 min 9 sec) 
Heartbeat CPU  3 instructions:   59000001 cycles:   54793459 heartbeat IPC: 0.21476 cumulative IPC: 0.21173 (Simulation time: 0 hr 7 min 10 sec) 
Heartbeat CPU  1 instructions:   59000001 cycles:   55274965 heartbeat IPC: 0.21314 cumulative IPC: 0.21265 (Simulation time: 0 hr 7 min 11 sec) 
Heartbeat CPU  2 instructions:   58000001 cycles:   58377712 heartbeat IPC: 0.16698 cumulative IPC: 0.16809 (Simulation time: 0 hr 7 min 17 sec) 
Heartbeat CPU  0 instructions:   57000001 cycles:   59006355 heartbeat IPC: 0.21489 cumulative IPC: 0.21164 (Simulation time: 0 hr 7 min 18 sec) 
Heartbeat CPU  3 instructions:   60000000 cycles:   59636560 heartbeat IPC: 0.20648 cumulative IPC: 0.21098 (Simulation time: 0 hr 7 min 19 sec) 
Heartbeat CPU  1 instructions:   60000000 cycles:   59874768 heartbeat IPC: 0.21740 cumulative IPC: 0.21330 (Simulation time: 0 hr 7 min 20 sec) 
Heartbeat CPU  0 instructions:   58000002 cycles:   63696084 heartbeat IPC: 0.21323 cumulative IPC: 0.21183 (Simulation time: 0 hr 7 min 27 sec) 
Heartbeat CPU  3 instructions:   61000002 cycles:   64311989 heartbeat IPC: 0.21388 cumulative IPC: 0.21133 (Simulation time: 0 hr 7 min 29 sec) 
Heartbeat CPU  2 instructions:   59000003 cycles:   64339424 heartbeat IPC: 0.16774 cumulative IPC: 0.16803 (Simulation time: 0 hr 7 min 29 sec) 
Heartbeat CPU  1 instructions:   61000000 cycles:   64704029 heartbeat IPC: 0.20707 cumulative IPC: 0.21252 (Simulation time: 0 hr 7 min 29 sec) 
Heartbeat CPU  0 instructions:   59000003 cycles:   68356849 heartbeat IPC: 0.21456 cumulative IPC: 0.21213 (Simulation time: 0 hr 7 min 37 sec) 
Heartbeat CPU  3 instructions:   62000001 cycles:   68959678 heartbeat IPC: 0.21516 cumulative IPC: 0.21174 (Simulation time: 0 hr 7 min 38 sec) 
Heartbeat CPU  1 instructions:   62000000 cycles:   69393731 heartbeat IPC: 0.21323 cumulative IPC: 0.21260 (Simulation time: 0 hr 7 min 39 sec) 
Heartbeat CPU  2 instructions:   60000000 cycles:   70220147 heartbeat IPC: 0.17005 cumulative IPC: 0.16830 (Simulation time: 0 hr 7 min 41 sec) 
Heartbeat CPU  0 instructions:   60000000 cycles:   73032060 heartbeat IPC: 0.21389 cumulative IPC: 0.21231 (Simulation time: 0 hr 7 min 46 sec) 
Heartbeat CPU  3 instructions:   63000001 cycles:   73712037 heartbeat IPC: 0.21042 cumulative IPC: 0.21161 (Simulation time: 0 hr 7 min 48 sec) 
Heartbeat CPU  1 instructions:   63000000 cycles:   74230341 heartbeat IPC: 0.20676 cumulative IPC: 0.21201 (Simulation time: 0 hr 7 min 49 sec) 
Heartbeat CPU  2 instructions:   61000001 cycles:   76011506 heartbeat IPC: 0.17267 cumulative IPC: 0.16880 (Simulation time: 0 hr 7 min 52 sec) 
Heartbeat CPU  0 instructions:   61000000 cycles:   77725354 heartbeat IPC: 0.21307 cumulative IPC: 0.21238 (Simulation time: 0 hr 7 min 56 sec) 
Heartbeat CPU  1 instructions:   64000000 cycles:   78618056 heartbeat IPC: 0.22791 cumulative IPC: 0.21334 (Simulation time: 0 hr 7 min 58 sec) 
Heartbeat CPU  3 instructions:   64000000 cycles:   78625916 heartbeat IPC: 0.20351 cumulative IPC: 0.21086 (Simulation time: 0 hr 7 min 58 sec) 
Heartbeat CPU  2 instructions:   62000002 cycles:   80726716 heartbeat IPC: 0.21208 cumulative IPC: 0.17253 (Simulation time: 0 hr 8 min 2 sec) 
Heartbeat CPU  0 instructions:   62000003 cycles:   82488655 heartbeat IPC: 0.20994 cumulative IPC: 0.21217 (Simulation time: 0 hr 8 min 6 sec) 
Heartbeat CPU  3 instructions:   65000002 cycles:   83500077 heartbeat IPC: 0.20516 cumulative IPC: 0.21038 (Simulation time: 0 hr 8 min 8 sec) 
Heartbeat CPU  1 instructions:   65000000 cycles:   83519929 heartbeat IPC: 0.20400 cumulative IPC: 0.21254 (Simulation time: 0 hr 8 min 8 sec) 
Heartbeat CPU  2 instructions:   63000002 cycles:   86482641 heartbeat IPC: 0.17373 cumulative IPC: 0.17264 (Simulation time: 0 hr 8 min 14 sec) 
Heartbeat CPU  0 instructions:   63000000 cycles:   87269764 heartbeat IPC: 0.20916 cumulative IPC: 0.21194 (Simulation time: 0 hr 8 min 15 sec) 
Heartbeat CPU  3 instructions:   66000001 cycles:   88150848 heartbeat IPC: 0.21502 cumulative IPC: 0.21072 (Simulation time: 0 hr 8 min 17 sec) 
Heartbeat CPU  1 instructions:   66000001 cycles:   88319957 heartbeat IPC: 0.20833 cumulative IPC: 0.21222 (Simulation time: 0 hr 8 min 17 sec) 
Heartbeat CPU  2 instructions:   64000000 cycles:   92154878 heartbeat IPC: 0.17630 cumulative IPC: 0.17296 (Simulation time: 0 hr 8 min 25 sec) 
Heartbeat CPU  0 instructions:   64000000 cycles:   92297275 heartbeat IPC: 0.19891 cumulative IPC: 0.21095 (Simulation time: 0 hr 8 min 25 sec) 
Heartbeat CPU  3 instructions:   67000001 cycles:   92772438 heartbeat IPC: 0.21638 cumulative IPC: 0.21111 (Simulation time: 0 hr 8 min 26 sec) 
Heartbeat CPU  1 instructions:   67000003 cycles:   92958227 heartbeat IPC: 0.21560 cumulative IPC: 0.21245 (Simulation time: 0 hr 8 min 27 sec) 
Heartbeat CPU  2 instructions:   65000000 cycles:   96495718 heartbeat IPC: 0.23037 cumulative IPC: 0.17649 (Simulation time: 0 hr 8 min 34 sec) 
Heartbeat CPU  0 instructions:   65000001 cycles:   96537010 heartbeat IPC: 0.23586 cumulative IPC: 0.21245 (Simulation time: 0 hr 8 min 34 sec) 
Heartbeat CPU  1 instructions:   68000000 cycles:   97437118 heartbeat IPC: 0.22327 cumulative IPC: 0.21313 (Simulation time: 0 hr 8 min 37 sec) 
Heartbeat CPU  3 instructions:   68000000 cycles:   97503717 heartbeat IPC: 0.21136 cumulative IPC: 0.21113 (Simulation time: 0 hr 8 min 37 sec) 
Heartbeat CPU  0 instructions:   66000000 cycles:   99590090 heartbeat IPC: 0.32754 cumulative IPC: 0.21722 (Simulation time: 0 hr 8 min 41 sec) 
Heartbeat CPU  0 instructions:   67000002 cycles:  100140727 heartbeat IPC: 1.81608 cumulative IPC: 0.22908 (Simulation time: 0 hr 8 min 43 sec) 
Heartbeat CPU  2 instructions:   66000003 cycles:  100871057 heartbeat IPC: 0.22855 cumulative IPC: 0.17953 (Simulation time: 0 hr 8 min 45 sec) 
Heartbeat CPU  1 instructions:   69000000 cycles:  101930618 heartbeat IPC: 0.22254 cumulative IPC: 0.21369 (Simulation time: 0 hr 8 min 48 sec) 
Heartbeat CPU  3 instructions:   69000002 cycles:  102116458 heartbeat IPC: 0.21679 cumulative IPC: 0.21147 (Simulation time: 0 hr 8 min 49 sec) 
Heartbeat CPU  2 instructions:   67000003 cycles:  102269164 heartbeat IPC: 0.71525 cumulative IPC: 0.18934 (Simulation time: 0 hr 8 min 49 sec) 
Heartbeat CPU  0 instructions:   68000000 cycles:  103510209 heartbeat IPC: 0.29678 cumulative IPC: 0.23202 (Simulation time: 0 hr 8 min 52 sec) 
Heartbeat CPU  1 instructions:   70000001 cycles:  106638011 heartbeat IPC: 0.21243 cumulative IPC: 0.21361 (Simulation time: 0 hr 8 min 58 sec) 
Heartbeat CPU  3 instructions:   70000000 cycles:  106826895 heartbeat IPC: 0.21229 cumulative IPC: 0.21152 (Simulation time: 0 hr 8 min 58 sec) 
Heartbeat CPU  2 instructions:   68000000 cycles:  106846792 heartbeat IPC: 0.21845 cumulative IPC: 0.19099 (Simulation time: 0 hr 8 min 58 sec) 
Heartbeat CPU  0 instructions:   69000000 cycles:  108152907 heartbeat IPC: 0.21539 cumulative IPC: 0.23108 (Simulation time: 0 hr 9 min 1 sec) 
Heartbeat CPU  1 instructions:   71000002 cycles:  111343658 heartbeat IPC: 0.21251 cumulative IPC: 0.21355 (Simulation time: 0 hr 9 min 8 sec) 
Heartbeat CPU  3 instructions:   71000000 cycles:  111552479 heartbeat IPC: 0.21161 cumulative IPC: 0.21153 (Simulation time: 0 hr 9 min 8 sec) 
Heartbeat CPU  2 instructions:   69000002 cycles:  112624729 heartbeat IPC: 0.17307 cumulative IPC: 0.18979 (Simulation time: 0 hr 9 min 10 sec) 
Heartbeat CPU  0 instructions:   70000003 cycles:  112799621 heartbeat IPC: 0.21521 cumulative IPC: 0.23023 (Simulation time: 0 hr 9 min 10 sec) 
Heartbeat CPU  1 instructions:   72000000 cycles:  116075425 heartbeat IPC: 0.21134 cumulative IPC: 0.21344 (Simulation time: 0 hr 9 min 17 sec) 
Heartbeat CPU  3 instructions:   72000000 cycles:  116265397 heartbeat IPC: 0.21218 cumulative IPC: 0.21156 (Simulation time: 0 hr 9 min 17 sec) 
Heartbeat CPU  0 instructions:   71000002 cycles:  117601386 heartbeat IPC: 0.20826 cumulative IPC: 0.22908 (Simulation time: 0 hr 9 min 20 sec) 
Heartbeat CPU  2 instructions:   70000002 cycles:  118508872 heartbeat IPC: 0.16995 cumulative IPC: 0.18853 (Simulation time: 0 hr 9 min 22 sec) 
Heartbeat CPU  1 instructions:   73000000 cycles:  120829643 heartbeat IPC: 0.21034 cumulative IPC: 0.21328 (Simulation time: 0 hr 9 min 27 sec) 
Heartbeat CPU  3 instructions:   73000002 cycles:  120941499 heartbeat IPC: 0.21385 cumulative IPC: 0.21167 (Simulation time: 0 hr 9 min 27 sec) 
Heartbeat CPU  0 instructions:   72000000 cycles:  122335379 heartbeat IPC: 0.21124 cumulative IPC: 0.22820 (Simulation time: 0 hr 9 min 30 sec) 
Heartbeat CPU  2 instructions:   71000000 cycles:  124440955 heartbeat IPC: 0.16857 cumulative IPC: 0.18733 (Simulation time: 0 hr 9 min 34 sec) 
Heartbeat CPU  1 instructions:   74000000 cycles:  125457655 heartbeat IPC: 0.21608 cumulative IPC: 0.21341 (Simulation time: 0 hr 9 min 36 sec) 
Heartbeat CPU  3 instructions:   74000000 cycles:  125676596 heartbeat IPC: 0.21119 cumulative IPC: 0.21165 (Simulation time: 0 hr 9 min 36 sec) 
Heartbeat CPU  0 instructions:   73000000 cycles:  127070929 heartbeat IPC: 0.21117 cumulative IPC: 0.22741 (Simulation time: 0 hr 9 min 39 sec) 
Heartbeat CPU  1 instructions:   75000000 cycles:  130154409 heartbeat IPC: 0.21291 cumulative IPC: 0.21339 (Simulation time: 0 hr 9 min 45 sec) 
Heartbeat CPU  3 instructions:   75000003 cycles:  130224972 heartbeat IPC: 0.21986 cumulative IPC: 0.21201 (Simulation time: 0 hr 9 min 46 sec) 
Heartbeat CPU  2 instructions:   72000000 cycles:  130309053 heartbeat IPC: 0.17041 cumulative IPC: 0.18638 (Simulation time: 0 hr 9 min 46 sec) 
Heartbeat CPU  0 instructions:   74000002 cycles:  131843246 heartbeat IPC: 0.20954 cumulative IPC: 0.22660 (Simulation time: 0 hr 9 min 49 sec) 
Heartbeat CPU  1 instructions:   76000000 cycles:  134790640 heartbeat IPC: 0.21569 cumulative IPC: 0.21349 (Simulation time: 0 hr 9 min 55 sec) 
Heartbeat CPU  3 instructions:   76000000 cycles:  134915987 heartbeat IPC: 0.21317 cumulative IPC: 0.21206 (Simulation time: 0 hr 9 min 55 sec) 
Heartbeat CPU  2 instructions:   73000002 cycles:  136221673 heartbeat IPC: 0.16913 cumulative IPC: 0.18545 (Simulation time: 0 hr 9 min 58 sec) 
Heartbeat CPU  0 instructions:   75000002 cycles:  136532411 heartbeat IPC: 0.21326 cumulative IPC: 0.22604 (Simulation time: 0 hr 9 min 58 sec) 
Heartbeat CPU  1 instructions:   77000002 cycles:  139468794 heartbeat IPC: 0.21376 cumulative IPC: 0.21350 (Simulation time: 0 hr 10 min 4 sec) 
Heartbeat CPU  3 instructions:   77000001 cycles:  139587486 heartbeat IPC: 0.21406 cumulative IPC: 0.21214 (Simulation time: 0 hr 10 min 4 sec) 
Heartbeat CPU  0 instructions:   76000000 cycles:  141184784 heartbeat IPC: 0.21494 cumulative IPC: 0.22559 (Simulation time: 0 hr 10 min 8 sec) 
Heartbeat CPU  2 instructions:   74000002 cycles:  142190561 heartbeat IPC: 0.16754 cumulative IPC: 0.18453 (Simulation time: 0 hr 10 min 10 sec) 
Heartbeat CPU  3 instructions:   78000002 cycles:  144132604 heartbeat IPC: 0.22002 cumulative IPC: 0.21244 (Simulation time: 0 hr 10 min 14 sec) 
Heartbeat CPU  1 instructions:   78000000 cycles:  144165396 heartbeat IPC: 0.21292 cumulative IPC: 0.21347 (Simulation time: 0 hr 10 min 14 sec) 
Heartbeat CPU  0 instructions:   77000001 cycles:  145879787 heartbeat IPC: 0.21299 cumulative IPC: 0.22510 (Simulation time: 0 hr 10 min 17 sec) 
Heartbeat CPU  2 instructions:   75000003 cycles:  148166946 heartbeat IPC: 0.16733 cumulative IPC: 0.18369 (Simulation time: 0 hr 10 min 22 sec) 
Heartbeat CPU  3 instructions:   79000000 cycles:  148797920 heartbeat IPC: 0.21435 cumulative IPC: 0.21252 (Simulation time: 0 hr 10 min 23 sec) 
Heartbeat CPU  1 instructions:   79000003 cycles:  148897051 heartbeat IPC: 0.21134 cumulative IPC: 0.21339 (Simulation time: 0 hr 10 min 23 sec) 
Heartbeat CPU  0 instructions:   78000000 cycles:  150573043 heartbeat IPC: 0.21307 cumulative IPC: 0.22464 (Simulation time: 0 hr 10 min 26 sec) 
Heartbeat CPU  3 instructions:   80000000 cycles:  153528429 heartbeat IPC: 0.21139 cumulative IPC: 0.21247 (Simulation time: 0 hr 10 min 32 sec) 
Heartbeat CPU  1 instructions:   80000000 cycles:  153728846 heartbeat IPC: 0.20696 cumulative IPC: 0.21315 (Simulation time: 0 hr 10 min 33 sec) 
Heartbeat CPU  2 instructions:   76000000 cycles:  154069417 heartbeat IPC: 0.16942 cumulative IPC: 0.18304 (Simulation time: 0 hr 10 min 34 sec) 
Heartbeat CPU  0 instructions:   79000002 cycles:  155258625 heartbeat IPC: 0.21342 cumulative IPC: 0.22424 (Simulation time: 0 hr 10 min 36 sec) 
Heartbeat CPU  3 instructions:   81000000 cycles:  158315102 heartbeat IPC: 0.20891 cumulative IPC: 0.21235 (Simulation time: 0 hr 10 min 42 sec) 
Heartbeat CPU  1 instructions:   81000000 cycles:  158559105 heartbeat IPC: 0.20703 cumulative IPC: 0.21293 (Simulation time: 0 hr 10 min 42 sec) 
Heartbeat CPU  0 instructions:   80000000 cycles:  159974545 heartbeat IPC: 0.21205 cumulative IPC: 0.22381 (Simulation time: 0 hr 10 min 45 sec) 
Heartbeat CPU  2 instructions:   77000002 cycles:  160006742 heartbeat IPC: 0.16843 cumulative IPC: 0.18239 (Simulation time: 0 hr 10 min 45 sec) 
Heartbeat CPU  1 instructions:   82000003 cycles:  163257341 heartbeat IPC: 0.21285 cumulative IPC: 0.21292 (Simulation time: 0 hr 10 min 52 sec) 
Heartbeat CPU  3 instructions:   82000000 cycles:  163288962 heartbeat IPC: 0.20105 cumulative IPC: 0.21194 (Simulation time: 0 hr 10 min 52 sec) 
Heartbeat CPU  0 instructions:   81000002 cycles:  164640307 heartbeat IPC: 0.21433 cumulative IPC: 0.22349 (Simulation time: 0 hr 10 min 55 sec) 
Heartbeat CPU  2 instructions:   78000000 cycles:  165916931 heartbeat IPC: 0.16920 cumulative IPC: 0.18183 (Simulation time: 0 hr 10 min 58 sec) 
Heartbeat CPU  3 instructions:   83000000 cycles:  168270248 heartbeat IPC: 0.20075 cumulative IPC: 0.21154 (Simulation time: 0 hr 11 min 2 sec) 
Heartbeat CPU  1 instructions:   83000000 cycles:  168343126 heartbeat IPC: 0.19663 cumulative IPC: 0.21234 (Simulation time: 0 hr 11 min 2 sec) 
Heartbeat CPU  0 instructions:   82000003 cycles:  169226523 heartbeat IPC: 0.21804 cumulative IPC: 0.22331 (Simulation time: 0 hr 11 min 4 sec) 
Heartbeat CPU  2 instructions:   79000000 cycles:  171832433 heartbeat IPC: 0.16905 cumulative IPC: 0.18131 (Simulation time: 0 hr 11 min 9 sec) 
Heartbeat CPU  3 instructions:   84000000 cycles:  172953236 heartbeat IPC: 0.21354 cumulative IPC: 0.21161 (Simulation time: 0 hr 11 min 11 sec) 
Heartbeat CPU  1 instructions:   84000000 cycles:  173238641 heartbeat IPC: 0.20427 cumulative IPC: 0.21207 (Simulation time: 0 hr 11 min 12 sec) 
Heartbeat CPU  0 instructions:   83000002 cycles:  173914669 heartbeat IPC: 0.21330 cumulative IPC: 0.22300 (Simulation time: 0 hr 11 min 13 sec) 
Heartbeat CPU  2 instructions:   80000000 cycles:  177578121 heartbeat IPC: 0.17404 cumulative IPC: 0.18104 (Simulation time: 0 hr 11 min 21 sec) 
Heartbeat CPU  3 instructions:   85000002 cycles:  177641365 heartbeat IPC: 0.21331 cumulative IPC: 0.21166 (Simulation time: 0 hr 11 min 21 sec) 
Heartbeat CPU  1 instructions:   85000000 cycles:  177852654 heartbeat IPC: 0.21673 cumulative IPC: 0.21221 (Simulation time: 0 hr 11 min 21 sec) 
Heartbeat CPU  0 instructions:   84000000 cycles:  178541507 heartbeat IPC: 0.21613 cumulative IPC: 0.22279 (Simulation time: 0 hr 11 min 23 sec) 
Heartbeat CPU  3 instructions:   86000000 cycles:  182171787 heartbeat IPC: 0.22073 cumulative IPC: 0.21192 (Simulation time: 0 hr 11 min 30 sec) 
Heartbeat CPU  1 instructions:   86000002 cycles:  182335275 heartbeat IPC: 0.22308 cumulative IPC: 0.21253 (Simulation time: 0 hr 11 min 31 sec) 
Heartbeat CPU  0 instructions:   85000000 cycles:  183226291 heartbeat IPC: 0.21346 cumulative IPC: 0.22251 (Simulation time: 0 hr 11 min 32 sec) 
Heartbeat CPU  2 instructions:   81000001 cycles:  183448572 heartbeat IPC: 0.17034 cumulative IPC: 0.18064 (Simulation time: 0 hr 11 min 33 sec) 
Heartbeat CPU  3 instructions:   87000001 cycles:  186899720 heartbeat IPC: 0.21151 cumulative IPC: 0.21191 (Simulation time: 0 hr 11 min 40 sec) 
Heartbeat CPU  1 instructions:   87000001 cycles:  187025422 heartbeat IPC: 0.21321 cumulative IPC: 0.21255 (Simulation time: 0 hr 11 min 40 sec) 
Heartbeat CPU  0 instructions:   86000002 cycles:  188573171 heartbeat IPC: 0.18703 cumulative IPC: 0.22134 (Simulation time: 0 hr 11 min 43 sec) 
Heartbeat CPU  2 instructions:   82000001 cycles:  189002564 heartbeat IPC: 0.18005 cumulative IPC: 0.18062 (Simulation time: 0 hr 11 min 44 sec) 
Heartbeat CPU  1 instructions:   88000000 cycles:  191648296 heartbeat IPC: 0.21632 cumulative IPC: 0.21265 (Simulation time: 0 hr 11 min 49 sec) 
Heartbeat CPU  3 instructions:   88000000 cycles:  191675658 heartbeat IPC: 0.20938 cumulative IPC: 0.21184 (Simulation time: 0 hr 11 min 49 sec) 
Heartbeat CPU  2 instructions:   83000000 cycles:  194711015 heartbeat IPC: 0.17518 cumulative IPC: 0.18044 (Simulation time: 0 hr 11 min 55 sec) 
Heartbeat CPU  3 instructions:   89000003 cycles:  196210956 heartbeat IPC: 0.22049 cumulative IPC: 0.21207 (Simulation time: 0 hr 11 min 58 sec) 
Heartbeat CPU  1 instructions:   89000002 cycles:  196269269 heartbeat IPC: 0.21641 cumulative IPC: 0.21275 (Simulation time: 0 hr 11 min 58 sec) 
Heartbeat CPU  0 instructions:   87000000 cycles:  196902810 heartbeat IPC: 0.12005 cumulative IPC: 0.21641 (Simulation time: 0 hr 11 min 59 sec) 
Heartbeat CPU  2 instructions:   84000000 cycles:  200029309 heartbeat IPC: 0.18803 cumulative IPC: 0.18067 (Simulation time: 0 hr 12 min 5 sec) 
Heartbeat CPU  3 instructions:   90000001 cycles:  200859012 heartbeat IPC: 0.21514 cumulative IPC: 0.21215 (Simulation time: 0 hr 12 min 7 sec) 
Heartbeat CPU  1 instructions:   90000002 cycles:  201049794 heartbeat IPC: 0.20918 cumulative IPC: 0.21266 (Simulation time: 0 hr 12 min 7 sec) 
Heartbeat CPU  0 instructions:   88000000 cycles:  204138498 heartbeat IPC: 0.13820 cumulative IPC: 0.21323 (Simulation time: 0 hr 12 min 13 sec) 
Heartbeat CPU  3 instructions:   91000002 cycles:  205670457 heartbeat IPC: 0.20784 cumulative IPC: 0.21204 (Simulation time: 0 hr 12 min 16 sec) 
Heartbeat CPU  1 instructions:   91000003 cycles:  205774938 heartbeat IPC: 0.21163 cumulative IPC: 0.21263 (Simulation time: 0 hr 12 min 16 sec) 
Heartbeat CPU  2 instructions:   85000001 cycles:  206122782 heartbeat IPC: 0.16411 cumulative IPC: 0.18011 (Simulation time: 0 hr 12 min 17 sec) 
Heartbeat CPU  3 instructions:   92000000 cycles:  210443418 heartbeat IPC: 0.20951 cumulative IPC: 0.21197 (Simulation time: 0 hr 12 min 24 sec) 
Heartbeat CPU  1 instructions:   92000000 cycles:  210471386 heartbeat IPC: 0.21293 cumulative IPC: 0.21264 (Simulation time: 0 hr 12 min 24 sec) 
Heartbeat CPU  2 instructions:   86000003 cycles:  212021374 heartbeat IPC: 0.16953 cumulative IPC: 0.17977 (Simulation time: 0 hr 12 min 27 sec) 
Heartbeat CPU  0 instructions:   89000000 cycles:  212473691 heartbeat IPC: 0.11997 cumulative IPC: 0.20907 (Simulation time: 0 hr 12 min 28 sec) 
Heartbeat CPU  1 instructions:   93000002 cycles:  215129276 heartbeat IPC: 0.21469 cumulative IPC: 0.21269 (Simulation time: 0 hr 12 min 33 sec) 
Heartbeat CPU  3 instructions:   93000002 cycles:  215155282 heartbeat IPC: 0.21223 cumulative IPC: 0.21198 (Simulation time: 0 hr 12 min 33 sec) 
Heartbeat CPU  2 instructions:   87000000 cycles:  218048606 heartbeat IPC: 0.16591 cumulative IPC: 0.17934 (Simulation time: 0 hr 12 min 38 sec) 
Heartbeat CPU  1 instructions:   94000002 cycles:  219767283 heartbeat IPC: 0.21561 cumulative IPC: 0.21276 (Simulation time: 0 hr 12 min 42 sec) 
Heartbeat CPU  3 instructions:   94000002 cycles:  219946422 heartbeat IPC: 0.20872 cumulative IPC: 0.21190 (Simulation time: 0 hr 12 min 42 sec) 
Heartbeat CPU  0 instructions:   90000000 cycles:  220815946 heartbeat IPC: 0.11987 cumulative IPC: 0.20525 (Simulation time: 0 hr 12 min 44 sec) 
Heartbeat CPU  2 instructions:   88000000 cycles:  223736914 heartbeat IPC: 0.17580 cumulative IPC: 0.17924 (Simulation time: 0 hr 12 min 50 sec) 
Heartbeat CPU  1 instructions:   95000000 cycles:  224392086 heartbeat IPC: 0.21622 cumulative IPC: 0.21284 (Simulation time: 0 hr 12 min 51 sec) 
Heartbeat CPU  3 instructions:   95000000 cycles:  224560705 heartbeat IPC: 0.21672 cumulative IPC: 0.21201 (Simulation time: 0 hr 12 min 51 sec) 
Heartbeat CPU  0 instructions:   91000001 cycles:  225917906 heartbeat IPC: 0.19600 cumulative IPC: 0.20501 (Simulation time: 0 hr 12 min 54 sec) 
Heartbeat CPU  1 instructions:   96000000 cycles:  228991734 heartbeat IPC: 0.21741 cumulative IPC: 0.21294 (Simulation time: 0 hr 13 min 1 sec) 
Heartbeat CPU  3 instructions:   96000000 cycles:  229116237 heartbeat IPC: 0.21951 cumulative IPC: 0.21218 (Simulation time: 0 hr 13 min 1 sec) 
Heartbeat CPU  2 instructions:   89000003 cycles:  229323046 heartbeat IPC: 0.17902 cumulative IPC: 0.17923 (Simulation time: 0 hr 13 min 1 sec) 
Heartbeat CPU  0 instructions:   92000000 cycles:  230712360 heartbeat IPC: 0.20857 cumulative IPC: 0.20510 (Simulation time: 0 hr 13 min 4 sec) 
Heartbeat CPU  1 instructions:   97000001 cycles:  233635882 heartbeat IPC: 0.21532 cumulative IPC: 0.21299 (Simulation time: 0 hr 13 min 10 sec) 
Heartbeat CPU  3 instructions:   97000002 cycles:  233769180 heartbeat IPC: 0.21492 cumulative IPC: 0.21224 (Simulation time: 0 hr 13 min 11 sec) 
Heartbeat CPU  2 instructions:   90000002 cycles:  234877451 heartbeat IPC: 0.18004 cumulative IPC: 0.17925 (Simulation time: 0 hr 13 min 13 sec) 
Heartbeat CPU  0 instructions:   93000003 cycles:  235460411 heartbeat IPC: 0.21061 cumulative IPC: 0.20522 (Simulation time: 0 hr 13 min 14 sec) 
Heartbeat CPU  1 instructions:   98000000 cycles:  238248238 heartbeat IPC: 0.21681 cumulative IPC: 0.21308 (Simulation time: 0 hr 13 min 20 sec) 
Heartbeat CPU  3 instructions:   98000000 cycles:  238470917 heartbeat IPC: 0.21269 cumulative IPC: 0.21225 (Simulation time: 0 hr 13 min 20 sec) 
Heartbeat CPU  0 instructions:   94000000 cycles:  240115965 heartbeat IPC: 0.21480 cumulative IPC: 0.20543 (Simulation time: 0 hr 13 min 24 sec) 
Heartbeat CPU  2 instructions:   91000001 cycles:  240913071 heartbeat IPC: 0.16568 cumulative IPC: 0.17887 (Simulation time: 0 hr 13 min 25 sec) 
Heartbeat CPU  1 instructions:   99000000 cycles:  242807364 heartbeat IPC: 0.21934 cumulative IPC: 0.21321 (Simulation time: 0 hr 13 min 29 sec) 
Heartbeat CPU  3 instructions:   99000001 cycles:  243094905 heartbeat IPC: 0.21626 cumulative IPC: 0.21233 (Simulation time: 0 hr 13 min 30 sec) 
Heartbeat CPU  0 instructions:   95000003 cycles:  244648764 heartbeat IPC: 0.22061 cumulative IPC: 0.20574 (Simulation time: 0 hr 13 min 33 sec) 
Heartbeat CPU  2 instructions:   92000000 cycles:  246866611 heartbeat IPC: 0.16797 cumulative IPC: 0.17858 (Simulation time: 0 hr 13 min 38 sec) 
*** Reached end of trace for Core: 1 Repeating trace: /data3/STREAMING/traces/streaming_phase5_core1.trace.xz
*** Reached end of trace for Core: 3 Repeating trace: /data3/STREAMING/traces/streaming_phase5_core3.trace.xz
Heartbeat CPU  1 instructions:  100000000 cycles:  247449675 heartbeat IPC: 0.21541 cumulative IPC: 0.21326 (Simulation time: 0 hr 13 min 39 sec) 
Heartbeat CPU  3 instructions:  100000000 cycles:  247608524 heartbeat IPC: 0.22155 cumulative IPC: 0.21252 (Simulation time: 0 hr 13 min 39 sec) 
Heartbeat CPU  0 instructions:   96000000 cycles:  249132542 heartbeat IPC: 0.22303 cumulative IPC: 0.20609 (Simulation time: 0 hr 13 min 42 sec) 
Heartbeat CPU  1 instructions:  101000000 cycles:  252108198 heartbeat IPC: 0.21466 cumulative IPC: 0.21328 (Simulation time: 0 hr 13 min 49 sec) 
Heartbeat CPU  2 instructions:   93000002 cycles:  252152155 heartbeat IPC: 0.18920 cumulative IPC: 0.17882 (Simulation time: 0 hr 13 min 49 sec) 
Heartbeat CPU  3 instructions:  101000002 cycles:  252195182 heartbeat IPC: 0.21802 cumulative IPC: 0.21263 (Simulation time: 0 hr 13 min 49 sec) 
Heartbeat CPU  0 instructions:   97000002 cycles:  253675357 heartbeat IPC: 0.22013 cumulative IPC: 0.20637 (Simulation time: 0 hr 13 min 53 sec) 
Heartbeat CPU  2 instructions:   94000000 cycles:  254144523 heartbeat IPC: 0.50191 cumulative IPC: 0.18164 (Simulation time: 0 hr 13 min 54 sec) 
Heartbeat CPU  2 instructions:   95000002 cycles:  256020271 heartbeat IPC: 0.53312 cumulative IPC: 0.18451 (Simulation time: 0 hr 13 min 59 sec) 
Heartbeat CPU  1 instructions:  102000000 cycles:  256638593 heartbeat IPC: 0.22073 cumulative IPC: 0.21343 (Simulation time: 0 hr 14 min 0 sec) 
Heartbeat CPU  3 instructions:  102000003 cycles:  256862002 heartbeat IPC: 0.21428 cumulative IPC: 0.21267 (Simulation time: 0 hr 14 min 1 sec) 
Heartbeat CPU  2 instructions:   96000000 cycles:  257919242 heartbeat IPC: 0.52660 cumulative IPC: 0.18731 (Simulation time: 0 hr 14 min 3 sec) 
Heartbeat CPU  0 instructions:   98000001 cycles:  258103077 heartbeat IPC: 0.22585 cumulative IPC: 0.20674 (Simulation time: 0 hr 14 min 4 sec) 
Heartbeat CPU  2 instructions:   97000001 cycles:  259849819 heartbeat IPC: 0.51798 cumulative IPC: 0.19004 (Simulation time: 0 hr 14 min 8 sec) 
Heartbeat CPU  1 instructions:  103000000 cycles:  261152847 heartbeat IPC: 0.22152 cumulative IPC: 0.21359 (Simulation time: 0 hr 14 min 11 sec) 
Heartbeat CPU  3 instructions:  103000003 cycles:  261651065 heartbeat IPC: 0.20881 cumulative IPC: 0.21259 (Simulation time: 0 hr 14 min 13 sec) 
Heartbeat CPU  2 instructions:   98000003 cycles:  261763986 heartbeat IPC: 0.52242 cumulative IPC: 0.19274 (Simulation time: 0 hr 14 min 13 sec) 
Heartbeat CPU  0 instructions:   99000002 cycles:  262558653 heartbeat IPC: 0.22444 cumulative IPC: 0.20708 (Simulation time: 0 hr 14 min 15 sec) 
Heartbeat CPU  2 instructions:   99000000 cycles:  263640314 heartbeat IPC: 0.53295 cumulative IPC: 0.19542 (Simulation time: 0 hr 14 min 17 sec) 
*** Reached end of trace for Core: 2 Repeating trace: /data3/STREAMING/traces/streaming_phase5_core2.trace.xz
Heartbeat CPU  1 instructions:  104000000 cycles:  265922623 heartbeat IPC: 0.20965 cumulative IPC: 0.21351 (Simulation time: 0 hr 14 min 23 sec) 
Heartbeat CPU  2 instructions:  100000000 cycles:  265922800 heartbeat IPC: 0.43812 cumulative IPC: 0.19773 (Simulation time: 0 hr 14 min 23 sec) 
Heartbeat CPU  3 instructions:  104000000 cycles:  266452542 heartbeat IPC: 0.20827 cumulative IPC: 0.21250 (Simulation time: 0 hr 14 min 24 sec) 
*** Reached end of trace for Core: 0 Repeating trace: /data3/STREAMING/traces/streaming_phase5_core0.trace.xz
Heartbeat CPU  0 instructions:  100000000 cycles:  266944747 heartbeat IPC: 0.22799 cumulative IPC: 0.20746 (Simulation time: 0 hr 14 min 25 sec) 
Heartbeat CPU  2 instructions:  101000001 cycles:  268208828 heartbeat IPC: 0.43744 cumulative IPC: 0.19999 (Simulation time: 0 hr 14 min 29 sec) 
Heartbeat CPU  0 instructions:  101000002 cycles:  269981715 heartbeat IPC: 0.32928 cumulative IPC: 0.20897 (Simulation time: 0 hr 14 min 33 sec) 
Heartbeat CPU  2 instructions:  102000002 cycles:  270005716 heartbeat IPC: 0.55652 cumulative IPC: 0.20262 (Simulation time: 0 hr 14 min 33 sec) 
Heartbeat CPU  1 instructions:  105000001 cycles:  270545061 heartbeat IPC: 0.21634 cumulative IPC: 0.21356 (Simulation time: 0 hr 14 min 35 sec) 
Heartbeat CPU  3 instructions:  105000000 cycles:  271207382 heartbeat IPC: 0.21031 cumulative IPC: 0.21246 (Simulation time: 0 hr 14 min 37 sec) 
Heartbeat CPU  2 instructions:  103000001 cycles:  271695387 heartbeat IPC: 0.59183 cumulative IPC: 0.20529 (Simulation time: 0 hr 14 min 38 sec) 
Heartbeat CPU  0 instructions:  102000000 cycles:  274541579 heartbeat IPC: 0.21930 cumulative IPC: 0.20916 (Simulation time: 0 hr 14 min 44 sec) 
Heartbeat CPU  2 instructions:  104000000 cycles:  274572145 heartbeat IPC: 0.34761 cumulative IPC: 0.20694 (Simulation time: 0 hr 14 min 44 sec) 
Heartbeat CPU  1 instructions:  106000002 cycles:  275073380 heartbeat IPC: 0.22083 cumulative IPC: 0.21369 (Simulation time: 0 hr 14 min 46 sec) 
Heartbeat CPU  3 instructions:  106000002 cycles:  275925080 heartbeat IPC: 0.21197 cumulative IPC: 0.21245 (Simulation time: 0 hr 14 min 48 sec) 
Heartbeat CPU  2 instructions:  105000002 cycles:  276613241 heartbeat IPC: 0.48993 cumulative IPC: 0.20924 (Simulation time: 0 hr 14 min 49 sec) 
Heartbeat CPU  0 instructions:  103000003 cycles:  277748416 heartbeat IPC: 0.31183 cumulative IPC: 0.21047 (Simulation time: 0 hr 14 min 53 sec) 
Heartbeat CPU  2 instructions:  106000002 cycles:  278495910 heartbeat IPC: 0.53116 cumulative IPC: 0.21164 (Simulation time: 0 hr 14 min 55 sec) 
Heartbeat CPU  1 instructions:  107000000 cycles:  279682181 heartbeat IPC: 0.21698 cumulative IPC: 0.21375 (Simulation time: 0 hr 14 min 58 sec) 
Heartbeat CPU  2 instructions:  107000001 cycles:  280012668 heartbeat IPC: 0.65930 cumulative IPC: 0.21432 (Simulation time: 0 hr 14 min 59 sec) 
Heartbeat CPU  3 instructions:  107000002 cycles:  280626198 heartbeat IPC: 0.21272 cumulative IPC: 0.21245 (Simulation time: 0 hr 15 min 0 sec) 
Heartbeat CPU  0 instructions:  104000000 cycles:  281135381 heartbeat IPC: 0.29525 cumulative IPC: 0.21159 (Simulation time: 0 hr 15 min 2 sec) 
Heartbeat CPU  2 instructions:  108000000 cycles:  282100311 heartbeat IPC: 0.47901 cumulative IPC: 0.21647 (Simulation time: 0 hr 15 min 4 sec) 
Heartbeat CPU  1 instructions:  108000000 cycles:  284258663 heartbeat IPC: 0.21851 cumulative IPC: 0.21384 (Simulation time: 0 hr 15 min 8 sec) 
Heartbeat CPU  3 instructions:  108000000 cycles:  285304215 heartbeat IPC: 0.21377 cumulative IPC: 0.21248 (Simulation time: 0 hr 15 min 10 sec) 
Heartbeat CPU  0 instructions:  105000003 cycles:  285843433 heartbeat IPC: 0.21240 cumulative IPC: 0.21161 (Simulation time: 0 hr 15 min 11 sec) 
Heartbeat CPU  2 instructions:  109000000 cycles:  287864531 heartbeat IPC: 0.17348 cumulative IPC: 0.21553 (Simulation time: 0 hr 15 min 16 sec) 
Heartbeat CPU  1 instructions:  109000000 cycles:  289037036 heartbeat IPC: 0.20928 cumulative IPC: 0.21375 (Simulation time: 0 hr 15 min 18 sec) 
Heartbeat CPU  3 instructions:  109000000 cycles:  289995374 heartbeat IPC: 0.21317 cumulative IPC: 0.21249 (Simulation time: 0 hr 15 min 20 sec) 
Heartbeat CPU  0 instructions:  106000002 cycles:  290501466 heartbeat IPC: 0.21468 cumulative IPC: 0.21166 (Simulation time: 0 hr 15 min 21 sec) 
Heartbeat CPU  0 instructions:  107000002 cycles:  292253942 heartbeat IPC: 0.57062 cumulative IPC: 0.21403 (Simulation time: 0 hr 15 min 25 sec) 
Heartbeat CPU  1 instructions:  110000003 cycles:  293505014 heartbeat IPC: 0.22382 cumulative IPC: 0.21392 (Simulation time: 0 hr 15 min 29 sec) 
Heartbeat CPU  0 instructions:  108000000 cycles:  293521535 heartbeat IPC: 0.78890 cumulative IPC: 0.21675 (Simulation time: 0 hr 15 min 29 sec) 
Heartbeat CPU  2 instructions:  110000002 cycles:  293575738 heartbeat IPC: 0.17509 cumulative IPC: 0.21466 (Simulation time: 0 hr 15 min 29 sec) 
Heartbeat CPU  3 instructions:  110000001 cycles:  294482854 heartbeat IPC: 0.22284 cumulative IPC: 0.21266 (Simulation time: 0 hr 15 min 31 sec) 
Heartbeat CPU  1 instructions:  111000001 cycles:  298078015 heartbeat IPC: 0.21867 cumulative IPC: 0.21400 (Simulation time: 0 hr 15 min 38 sec) 
Heartbeat CPU  0 instructions:  109000003 cycles:  298116585 heartbeat IPC: 0.21763 cumulative IPC: 0.21676 (Simulation time: 0 hr 15 min 38 sec) 
Heartbeat CPU  3 instructions:  111000000 cycles:  299049200 heartbeat IPC: 0.21899 cumulative IPC: 0.21277 (Simulation time: 0 hr 15 min 40 sec) 
Heartbeat CPU  2 instructions:  111000002 cycles:  299431418 heartbeat IPC: 0.17077 cumulative IPC: 0.21372 (Simulation time: 0 hr 15 min 41 sec) 
Heartbeat CPU  0 instructions:  110000003 cycles:  302601623 heartbeat IPC: 0.22296 cumulative IPC: 0.21686 (Simulation time: 0 hr 15 min 48 sec) 
Heartbeat CPU  1 instructions:  112000000 cycles:  302745738 heartbeat IPC: 0.21424 cumulative IPC: 0.21401 (Simulation time: 0 hr 15 min 48 sec) 
Heartbeat CPU  3 instructions:  112000000 cycles:  303683478 heartbeat IPC: 0.21578 cumulative IPC: 0.21282 (Simulation time: 0 hr 15 min 50 sec) 
Heartbeat CPU  2 instructions:  112000000 cycles:  305141723 heartbeat IPC: 0.17512 cumulative IPC: 0.21294 (Simulation time: 0 hr 15 min 53 sec) 
Heartbeat CPU  0 instructions:  111000001 cycles:  307193579 heartbeat IPC: 0.21777 cumulative IPC: 0.21688 (Simulation time: 0 hr 15 min 57 sec) 
Heartbeat CPU  1 instructions:  113000003 cycles:  307457310 heartbeat IPC: 0.21224 cumulative IPC: 0.21398 (Simulation time: 0 hr 15 min 58 sec) 
Heartbeat CPU  3 instructions:  113000000 cycles:  308386689 heartbeat IPC: 0.21262 cumulative IPC: 0.21282 (Simulation time: 0 hr 16 min 0 sec) 
Heartbeat CPU  2 instructions:  113000000 cycles:  310186783 heartbeat IPC: 0.19821 cumulative IPC: 0.21267 (Simulation time: 0 hr 16 min 3 sec) 
Heartbeat CPU  0 instructions:  112000000 cycles:  311675522 heartbeat IPC: 0.22312 cumulative IPC: 0.21698 (Simulation time: 0 hr 16 min 7 sec) 
Heartbeat CPU  2 instructions:  114000001 cycles:  312067789 heartbeat IPC: 0.53163 cumulative IPC: 0.21477 (Simulation time: 0 hr 16 min 8 sec) 
Heartbeat CPU  1 instructions:  114000001 cycles:  312202420 heartbeat IPC: 0.21074 cumulative IPC: 0.21392 (Simulation time: 0 hr 16 min 8 sec) 
Heartbeat CPU  3 instructions:  114000002 cycles:  312926227 heartbeat IPC: 0.22029 cumulative IPC: 0.21293 (Simulation time: 0 hr 16 min 10 sec) 
Heartbeat CPU  2 instructions:  115000003 cycles:  313901979 heartbeat IPC: 0.54520 cumulative IPC: 0.21688 (Simulation time: 0 hr 16 min 13 sec) 
Heartbeat CPU  2 instructions:  116000000 cycles:  315725273 heartbeat IPC: 0.54846 cumulative IPC: 0.21896 (Simulation time: 0 hr 16 min 17 sec) 
Heartbeat CPU  0 instructions:  113000000 cycles:  316322233 heartbeat IPC: 0.21521 cumulative IPC: 0.21695 (Simulation time: 0 hr 16 min 19 sec) 
Heartbeat CPU  1 instructions:  115000002 cycles:  316860144 heartbeat IPC: 0.21470 cumulative IPC: 0.21394 (Simulation time: 0 hr 16 min 20 sec) 
Heartbeat CPU  2 instructions:  117000003 cycles:  317475803 heartbeat IPC: 0.57126 cumulative IPC: 0.22108 (Simulation time: 0 hr 16 min 21 sec) 
Heartbeat CPU  3 instructions:  115000003 cycles:  317479946 heartbeat IPC: 0.21960 cumulative IPC: 0.21304 (Simulation time: 0 hr 16 min 21 sec) 
Heartbeat CPU  2 instructions:  118000002 cycles:  318597632 heartbeat IPC: 0.89140 cumulative IPC: 0.22365 (Simulation time: 0 hr 16 min 25 sec) 
Heartbeat CPU  2 instructions:  119000001 cycles:  319588134 heartbeat IPC: 1.00959 cumulative IPC: 0.22630 (Simulation time: 0 hr 16 min 28 sec) 
Heartbeat CPU  2 instructions:  120000000 cycles:  320724436 heartbeat IPC: 0.88005 cumulative IPC: 0.22882 (Simulation time: 0 hr 16 min 31 sec) 
Heartbeat CPU  0 instructions:  114000000 cycles:  320983099 heartbeat IPC: 0.21455 cumulative IPC: 0.21691 (Simulation time: 0 hr 16 min 32 sec) 
Heartbeat CPU  1 instructions:  116000000 cycles:  321509132 heartbeat IPC: 0.21510 cumulative IPC: 0.21395 (Simulation time: 0 hr 16 min 33 sec) 
Heartbeat CPU  2 instructions:  121000002 cycles:  321807413 heartbeat IPC: 0.92338 cumulative IPC: 0.23136 (Simulation time: 0 hr 16 min 34 sec) 
Heartbeat CPU  3 instructions:  116000000 cycles:  321976927 heartbeat IPC: 0.22237 cumulative IPC: 0.21318 (Simulation time: 0 hr 16 min 35 sec) 
Heartbeat CPU  2 instructions:  122000000 cycles:  325064549 heartbeat IPC: 0.30702 cumulative IPC: 0.23218 (Simulation time: 0 hr 16 min 41 sec) 
Heartbeat CPU  0 instructions:  115000001 cycles:  325643172 heartbeat IPC: 0.21459 cumulative IPC: 0.21687 (Simulation time: 0 hr 16 min 42 sec) 
Heartbeat CPU  1 instructions:  117000003 cycles:  325731863 heartbeat IPC: 0.23681 cumulative IPC: 0.21428 (Simulation time: 0 hr 16 min 43 sec) 
Heartbeat CPU  1 instructions:  118000000 cycles:  326317381 heartbeat IPC: 1.70788 cumulative IPC: 0.21719 (Simulation time: 0 hr 16 min 45 sec) 
Heartbeat CPU  3 instructions:  117000003 cycles:  326532977 heartbeat IPC: 0.21949 cumulative IPC: 0.21328 (Simulation time: 0 hr 16 min 46 sec) 
Heartbeat CPU  1 instructions:  119000002 cycles:  326855520 heartbeat IPC: 1.85826 cumulative IPC: 0.22012 (Simulation time: 0 hr 16 min 47 sec) 
Heartbeat CPU  1 instructions:  120000000 cycles:  328511292 heartbeat IPC: 0.60395 cumulative IPC: 0.22222 (Simulation time: 0 hr 16 min 51 sec) 
Heartbeat CPU  3 instructions:  118000003 cycles:  328940559 heartbeat IPC: 0.41535 cumulative IPC: 0.21488 (Simulation time: 0 hr 16 min 53 sec) 
Heartbeat CPU  3 instructions:  119000002 cycles:  329512278 heartbeat IPC: 1.74911 cumulative IPC: 0.21777 (Simulation time: 0 hr 16 min 55 sec) 
Heartbeat CPU  3 instructions:  120000000 cycles:  330084697 heartbeat IPC: 1.74697 cumulative IPC: 0.22065 (Simulation time: 0 hr 16 min 57 sec) 
Heartbeat CPU  1 instructions:  121000001 cycles:  330244237 heartbeat IPC: 0.57705 cumulative IPC: 0.22424 (Simulation time: 0 hr 16 min 58 sec) 
Heartbeat CPU  0 instructions:  116000000 cycles:  330346363 heartbeat IPC: 0.21262 cumulative IPC: 0.21681 (Simulation time: 0 hr 16 min 59 sec) 
Heartbeat CPU  3 instructions:  121000000 cycles:  330701880 heartbeat IPC: 1.62027 cumulative IPC: 0.22348 (Simulation time: 0 hr 17 min 1 sec) 
Heartbeat CPU  2 instructions:  123000003 cycles:  330961054 heartbeat IPC: 0.16959 cumulative IPC: 0.23097 (Simulation time: 0 hr 17 min 2 sec) 
Heartbeat CPU  3 instructions:  122000002 cycles:  332733098 heartbeat IPC: 0.49232 cumulative IPC: 0.22526 (Simulation time: 0 hr 17 min 5 sec) 
Heartbeat CPU  1 instructions:  122000002 cycles:  333490525 heartbeat IPC: 0.30804 cumulative IPC: 0.22513 (Simulation time: 0 hr 17 min 7 sec) 
Heartbeat CPU  0 instructions:  117000001 cycles:  334962644 heartbeat IPC: 0.21662 cumulative IPC: 0.21681 (Simulation time: 0 hr 17 min 10 sec) 
Heartbeat CPU  2 instructions:  124000000 cycles:  336737086 heartbeat IPC: 0.17313 cumulative IPC: 0.22990 (Simulation time: 0 hr 17 min 13 sec) 
Heartbeat CPU  3 instructions:  123000002 cycles:  337624043 heartbeat IPC: 0.20446 cumulative IPC: 0.22494 (Simulation time: 0 hr 17 min 15 sec) 
Heartbeat CPU  0 instructions:  118000002 cycles:  339664843 heartbeat IPC: 0.21267 cumulative IPC: 0.21674 (Simulation time: 0 hr 17 min 19 sec) 
Heartbeat CPU  1 instructions:  123000000 cycles:  340056260 heartbeat IPC: 0.15231 cumulative IPC: 0.22361 (Simulation time: 0 hr 17 min 20 sec) 
Heartbeat CPU  2 instructions:  125000003 cycles:  340275803 heartbeat IPC: 0.28259 cumulative IPC: 0.23049 (Simulation time: 0 hr 17 min 20 sec) 
Heartbeat CPU  2 instructions:  126000000 cycles:  342246961 heartbeat IPC: 0.50731 cumulative IPC: 0.23222 (Simulation time: 0 hr 17 min 24 sec) 
Heartbeat CPU  3 instructions:  124000000 cycles:  342303107 heartbeat IPC: 0.21372 cumulative IPC: 0.22477 (Simulation time: 0 hr 17 min 25 sec) 
Heartbeat CPU  2 instructions:  127000001 cycles:  344195165 heartbeat IPC: 0.51329 cumulative IPC: 0.23394 (Simulation time: 0 hr 17 min 29 sec) 
Heartbeat CPU  0 instructions:  119000000 cycles:  344336918 heartbeat IPC: 0.21404 cumulative IPC: 0.21670 (Simulation time: 0 hr 17 min 29 sec) 
Heartbeat CPU  2 instructions:  128000000 cycles:  346964731 heartbeat IPC: 0.36107 cumulative IPC: 0.23503 (Simulation time: 0 hr 17 min 35 sec) 
Heartbeat CPU  3 instructions:  125000000 cycles:  347114520 heartbeat IPC: 0.20784 cumulative IPC: 0.22452 (Simulation time: 0 hr 17 min 35 sec) 
Heartbeat CPU  1 instructions:  124000000 cycles:  348479689 heartbeat IPC: 0.11872 cumulative IPC: 0.22087 (Simulation time: 0 hr 17 min 37 sec) 
Heartbeat CPU  0 instructions:  120000000 cycles:  349044416 heartbeat IPC: 0.21243 cumulative IPC: 0.21664 (Simulation time: 0 hr 17 min 38 sec) 
Heartbeat CPU  3 instructions:  126000000 cycles:  351831223 heartbeat IPC: 0.21201 cumulative IPC: 0.22434 (Simulation time: 0 hr 17 min 44 sec) 
Heartbeat CPU  2 instructions:  129000000 cycles:  352508059 heartbeat IPC: 0.18040 cumulative IPC: 0.23411 (Simulation time: 0 hr 17 min 45 sec) 
Heartbeat CPU  0 instructions:  121000001 cycles:  353750495 heartbeat IPC: 0.21249 cumulative IPC: 0.21658 (Simulation time: 0 hr 17 min 47 sec) 
Heartbeat CPU  1 instructions:  125000001 cycles:  354767742 heartbeat IPC: 0.15903 cumulative IPC: 0.21968 (Simulation time: 0 hr 17 min 50 sec) 
Heartbeat CPU  3 instructions:  127000000 cycles:  356578788 heartbeat IPC: 0.21063 cumulative IPC: 0.22414 (Simulation time: 0 hr 17 min 53 sec) 
Heartbeat CPU  2 instructions:  130000001 cycles:  358026505 heartbeat IPC: 0.18121 cumulative IPC: 0.23323 (Simulation time: 0 hr 17 min 56 sec) 
Heartbeat CPU  0 instructions:  122000000 cycles:  358435563 heartbeat IPC: 0.21344 cumulative IPC: 0.21654 (Simulation time: 0 hr 17 min 57 sec) 
Heartbeat CPU  1 instructions:  126000002 cycles:  359335215 heartbeat IPC: 0.21894 cumulative IPC: 0.21967 (Simulation time: 0 hr 17 min 59 sec) 
Heartbeat CPU  3 instructions:  128000000 cycles:  361411219 heartbeat IPC: 0.20694 cumulative IPC: 0.22389 (Simulation time: 0 hr 18 min 3 sec) 
Heartbeat CPU  0 instructions:  123000002 cycles:  363120027 heartbeat IPC: 0.21347 cumulative IPC: 0.21650 (Simulation time: 0 hr 18 min 7 sec) 
[...]
Core_0_L2C_prefetch_late 178526
Core_0_L2C_average_miss_latency 119.50287

Core_0_L2C_rq_access 8841271
Core_0_L2C_rq_forward 0
Core_0_L2C_rq_merged 0
Core_0_L2C_rq_to_cache 8840440
Core_0_L2C_rq_full 0

Core_0_L2C_wq_access 1222276
Core_0_L2C_wq_forward 841
Core_0_L2C_wq_merged 0
Core_0_L2C_wq_to_cache 1222276
Core_0_L2C_wq_full 0

Core_0_L2C_pq_access 15352766
Core_0_L2C_pq_forward 0
Core_0_L2C_pq_merged 22750
Core_0_L2C_pq_to_cache 15330006
Core_0_L2C_pq_full 0

Core_0_L2C_acc_epochs 173365
Core_0_L2C_acc_level_0 38755
Core_0_L2C_acc_level_1 45897
Core_0_L2C_acc_level_2 33158
Core_0_L2C_acc_level_3 17424
Core_0_L2C_acc_level_4 9653
Core_0_L2C_acc_level_5 6653
Core_0_L2C_acc_level_6 4749
Core_0_L2C_acc_level_7 3559
Core_0_L2C_acc_level_8 2834
Core_0_L2C_acc_level_9 10683

Core_0_LLC_total_access 5102655
Core_0_LLC_total_hit 3939306
Core_0_LLC_total_miss 1163349
Core_0_LLC_loads 872887
Core_0_LLC_load_hit 758653
Core_0_LLC_load_miss 114234
Core_0_LLC_RFOs 456098
Core_0_LLC_RFO_hit 248596
Core_0_LLC_RFO_miss 207502
Core_0_LLC_prefetches 3068021
Core_0_LLC_prefetch_hit 2261781
Core_0_LLC_prefetch_miss 806240
Core_0_LLC_writebacks 705649
Core_0_LLC_writeback_hit 670276
Core_0_LLC_writeback_miss 35373
Core_0_LLC_prefetch_requested 0
Core_0_LLC_prefetch_dropped 0
Core_0_LLC_prefetch_issued 0
Core_0_LLC_prefetch_filled 4035662
Core_0_LLC_prefetch_useful 118784
Core_0_LLC_prefetch_useless 3834866
Core_0_LLC_prefetch_late 0
Core_0_LLC_average_miss_latency 627.39075

Core_0_LLC_rq_access 5823603
Core_0_LLC_rq_forward 0
Core_0_LLC_rq_merged 0
Core_0_LLC_rq_to_cache 5823006
Core_0_LLC_rq_full 0

Core_0_LLC_wq_access 2781899
Core_0_LLC_wq_forward 681
Core_0_LLC_wq_merged 0
Core_0_LLC_wq_to_cache 2781899
Core_0_LLC_wq_full 0

Core_0_LLC_pq_access 18341130
Core_0_LLC_pq_forward 0
Core_0_LLC_pq_merged 0
Core_0_LLC_pq_to_cache 18341042
Core_0_LLC_pq_full 0

Core_0_LLC_acc_epochs 714394
Core_0_LLC_acc_level_0 651115
Core_0_LLC_acc_level_1 32526
Core_0_LLC_acc_level_2 15322
Core_0_LLC_acc_level_3 3507
Core_0_LLC_acc_level_4 694
Core_0_LLC_acc_level_5 8013
Core_0_LLC_acc_level_6 611
Core_0_LLC_acc_level_7 607
Core_0_LLC_acc_level_8 150
Core_0_LLC_acc_level_9 1849

Core_0_major_page_fault 0
Core_0_minor_page_fault 17811

Core_1_instructions 150000000
Core_1_cycles 693019524
Core_1_IPC 0.21644

Core_1_branch_prediction_accuracy 97.15415
Core_1_branch_MPKI 5.21146
Core_1_average_ROB_occupancy_at_mispredict 83.48105

Core_1_L1D_total_access 24393476
Core_1_L1D_total_hit 21231630
Core_1_L1D_total_miss 3161846
Core_1_L1D_loads 14308222
Core_1_L1D_load_hit 11984751
Core_1_L1D_load_miss 2323471
Core_1_L1D_RFOs 10085254
Core_1_L1D_RFO_hit 9246879
Core_1_L1D_RFO_miss 838375
Core_1_L1D_prefetches 0
Core_1_L1D_prefetch_hit 0
Core_1_L1D_prefetch_miss 0
Core_1_L1D_writebacks 0
Core_1_L1D_writeback_hit 0
Core_1_L1D_writeback_miss 0
Core_1_L1D_prefetch_requested 0
Core_1_L1D_prefetch_dropped 0
Core_1_L1D_prefetch_issued 0
Core_1_L1D_prefetch_filled 0
Core_1_L1D_prefetch_useful 0
Core_1_L1D_prefetch_useless 0
Core_1_L1D_prefetch_late 0
Core_1_L1D_average_miss_latency 93.82880

Core_1_L1D_rq_access 27038590
Core_1_L1D_rq_forward 0
Core_1_L1D_rq_merged 12065188
Core_1_L1D_rq_to_cache 14970670
Core_1_L1D_rq_full 0

Core_1_L1D_wq_access 13504622
Core_1_L1D_wq_forward 2732
Core_1_L1D_wq_merged 43586
Core_1_L1D_wq_to_cache 13461036
Core_1_L1D_wq_full 2740

Core_1_L1D_pq_access 0
Core_1_L1D_pq_forward 0
Core_1_L1D_pq_merged 0
Core_1_L1D_pq_to_cache 0
Core_1_L1D_pq_full 0

Core_1_L1D_acc_epochs 176240
Core_1_L1D_acc_level_0 176240
Core_1_L1D_acc_level_1 0
Core_1_L1D_acc_level_2 0
Core_1_L1D_acc_level_3 0
Core_1_L1D_acc_level_4 0
Core_1_L1D_acc_level_5 0
Core_1_L1D_acc_level_6 0
Core_1_L1D_acc_level_7 0
Core_1_L1D_acc_level_8 0
Core_1_L1D_acc_level_9 0

Core_1_L1I_total_access 32781640
Core_1_L1I_total_hit 26788640
Core_1_L1I_total_miss 5993000
Core_1_L1I_loads 32781640
Core_1_L1I_load_hit 26788640
Core_1_L1I_load_miss 5993000
Core_1_L1I_RFOs 0
Core_1_L1I_RFO_hit 0
Core_1_L1I_RFO_miss 0
Core_1_L1I_prefetches 0
Core_1_L1I_prefetch_hit 0
Core_1_L1I_prefetch_miss 0
Core_1_L1I_writebacks 0
Core_1_L1I_writeback_hit 0
Core_1_L1I_writeback_miss 0
Core_1_L1I_prefetch_requested 0
Core_1_L1I_prefetch_dropped 0
Core_1_L1I_prefetch_issued 0
Core_1_L1I_prefetch_filled 0
Core_1_L1I_prefetch_useful 0
Core_1_L1I_prefetch_useless 0
Core_1_L1I_prefetch_late 0
Core_1_L1I_average_miss_latency 89.02554

Core_1_L1I_rq_access 152696299
Core_1_L1I_rq_forward 0
Core_1_L1I_rq_merged 115757715
Core_1_L1I_rq_to_cache 36938584
Core_1_L1I_rq_full 0

Core_1_L1I_wq_access 0
Core_1_L1I_wq_forward 0
Core_1_L1I_wq_merged 0
Core_1_L1I_wq_to_cache 0
Core_1_L1I_wq_full 0

Core_1_L1I_pq_access 0
Core_1_L1I_pq_forward 0
Core_1_L1I_pq_merged 0
Core_1_L1I_pq_to_cache 0
Core_1_L1I_pq_full 0

Core_1_L1I_acc_epochs 176240
Core_1_L1I_acc_level_0 176240
Core_1_L1I_acc_level_1 0
Core_1_L1I_acc_level_2 0
Core_1_L1I_acc_level_3 0
Core_1_L1I_acc_level_4 0
Core_1_L1I_acc_level_5 0
Core_1_L1I_acc_level_6 0
Core_1_L1I_acc_level_7 0
Core_1_L1I_acc_level_8 0
Core_1_L1I_acc_level_9 0

Core_1_L2C_total_access 22240077
Core_1_L2C_total_hit 18369445
Core_1_L2C_total_miss 3870632
Core_1_L2C_loads 8316122
Core_1_L2C_load_hit 7459103
Core_1_L2C_load_miss 857019
Core_1_L2C_RFOs 838028
Core_1_L2C_RFO_hit 403638
Core_1_L2C_RFO_miss 434390
Core_1_L2C_prefetches 11881612
Core_1_L2C_prefetch_hit 9370958
Core_1_L2C_prefetch_miss 2510654
Core_1_L2C_writebacks 1204315
Core_1_L2C_writeback_hit 1135746
Core_1_L2C_writeback_miss 68569
Core_1_L2C_prefetch_requested 16266643
Core_1_L2C_prefetch_dropped 8886
Core_1_L2C_prefetch_issued 16257757
Core_1_L2C_prefetch_filled 3330011
Core_1_L2C_prefetch_useful 870642
Core_1_L2C_prefetch_useless 2457507
Core_1_L2C_prefetch_late 164860
Core_1_L2C_average_miss_latency 118.55882

Core_1_L2C_rq_access 9314616
Core_1_L2C_rq_forward 0
Core_1_L2C_rq_merged 0
Core_1_L2C_rq_to_cache 9313916
Core_1_L2C_rq_full 0

Core_1_L2C_wq_access 1224515
Core_1_L2C_wq_forward 720
Core_1_L2C_wq_merged 0
Core_1_L2C_wq_to_cache 1224515
Core_1_L2C_wq_full 0

Core_1_L2C_pq_access 16257757
Core_1_L2C_pq_forward 0
Core_1_L2C_pq_merged 30304
Core_1_L2C_pq_to_cache 16227433
Core_1_L2C_pq_full 0

Core_1_L2C_acc_epochs 176240
Core_1_L2C_acc_level_0 51050
Core_1_L2C_acc_level_1 44608
Core_1_L2C_acc_level_2 31040
Core_1_L2C_acc_level_3 16406
Core_1_L2C_acc_level_4 9749
Core_1_L2C_acc_level_5 6216
Core_1_L2C_acc_level_6 3603
Core_1_L2C_acc_level_7 2514
Core_1_L2C_acc_level_8 2098
Core_1_L2C_acc_level_9 8956

Core_1_LLC_total_access 4435149
Core_1_LLC_total_hit 3424898
Core_1_LLC_total_miss 1010251
Core_1_LLC_loads 695435
Core_1_LLC_load_hit 592390
Core_1_LLC_load_miss 103045
Core_1_LLC_RFOs 434041
Core_1_LLC_RFO_hit 242593
Core_1_LLC_RFO_miss 191448
Core_1_LLC_prefetches 2672493
Core_1_LLC_prefetch_hit 1986213
Core_1_LLC_prefetch_miss 686280
Core_1_LLC_writebacks 633180
Core_1_LLC_writeback_hit 603702
Core_1_LLC_writeback_miss 29478
Core_1_LLC_prefetch_requested 0
Core_1_LLC_prefetch_dropped 0
Core_1_LLC_prefetch_issued 0
Core_1_LLC_prefetch_filled 4035662
Core_1_LLC_prefetch_useful 118784
Core_1_LLC_prefetch_useless 3834866
Core_1_LLC_prefetch_late 0
Core_1_LLC_average_miss_latency 722.46837

Core_1_LLC_rq_access 5823603
Core_1_LLC_rq_forward 0
Core_1_LLC_rq_merged 0
Core_1_LLC_rq_to_cache 5823006
Core_1_LLC_rq_full 0

Core_1_LLC_wq_access 2781899
Core_1_LLC_wq_forward 681
Core_1_LLC_wq_merged 0
Core_1_LLC_wq_to_cache 2781899
Core_1_LLC_wq_full 0

Core_1_LLC_pq_access 18341130
Core_1_LLC_pq_forward 0
Core_1_LLC_pq_merged 0
Core_1_LLC_pq_to_cache 18341042
Core_1_LLC_pq_full 0

Core_1_LLC_acc_epochs 714394
Core_1_LLC_acc_level_0 651115
Core_1_LLC_acc_level_1 32526
Core_1_LLC_acc_level_2 15322
Core_1_LLC_acc_level_3 3507
Core_1_LLC_acc_level_4 694
Core_1_LLC_acc_level_5 8013
Core_1_LLC_acc_level_6 611
Core_1_LLC_acc_level_7 607
Core_1_LLC_acc_level_8 150
Core_1_LLC_acc_level_9 1849

Core_1_major_page_fault 0
Core_1_minor_page_fault 18204

Core_2_instructions 150000003
Core_2_cycles 703350943
Core_2_IPC 0.21326

Core_2_branch_prediction_accuracy 95.92563
Core_2_branch_MPKI 7.13356
Core_2_average_ROB_occupancy_at_mispredict 76.20023

Core_2_L1D_total_access 21963028
Core_2_L1D_total_hit 19098470
Core_2_L1D_total_miss 2864558
Core_2_L1D_loads 13836151
Core_2_L1D_load_hit 11683700
Core_2_L1D_load_miss 2152451
Core_2_L1D_RFOs 8126877
Core_2_L1D_RFO_hit 7414770
Core_2_L1D_RFO_miss 712107
Core_2_L1D_prefetches 0
Core_2_L1D_prefetch_hit 0
Core_2_L1D_prefetch_miss 0
Core_2_L1D_writebacks 0
Core_2_L1D_writeback_hit 0
Core_2_L1D_writeback_miss 0
Core_2_L1D_prefetch_requested 0
Core_2_L1D_prefetch_dropped 0
Core_2_L1D_prefetch_issued 0
Core_2_L1D_prefetch_filled 0
Core_2_L1D_prefetch_useful 0
Core_2_L1D_prefetch_useless 0
Core_2_L1D_prefetch_late 0
Core_2_L1D_average_miss_latency 98.40423

Core_2_L1D_rq_access 25757413
Core_2_L1D_rq_forward 0
Core_2_L1D_rq_merged 11110582
Core_2_L1D_rq_to_cache 14641822
Core_2_L1D_rq_full 0

Core_2_L1D_wq_access 10532332
Core_2_L1D_wq_forward 5009
Core_2_L1D_wq_merged 33010
Core_2_L1D_wq_to_cache 10499322
Core_2_L1D_wq_full 245

Core_2_L1D_pq_access 0
Core_2_L1D_pq_forward 0
Core_2_L1D_pq_merged 0
Core_2_L1D_pq_to_cache 0
Core_2_L1D_pq_full 0

Core_2_L1D_acc_epochs 179938
Core_2_L1D_acc_level_0 179938
Core_2_L1D_acc_level_1 0
Core_2_L1D_acc_level_2 0
Core_2_L1D_acc_level_3 0
Core_2_L1D_acc_level_4 0
Core_2_L1D_acc_level_5 0
Core_2_L1D_acc_level_6 0
Core_2_L1D_acc_level_7 0
Core_2_L1D_acc_level_8 0
Core_2_L1D_acc_level_9 0

Core_2_L1I_total_access 29768640
Core_2_L1I_total_hit 25373819
Core_2_L1I_total_miss 4394821
Core_2_L1I_loads 29768640
Core_2_L1I_load_hit 25373819
Core_2_L1I_load_miss 4394821
Core_2_L1I_RFOs 0
Core_2_L1I_RFO_hit 0
Core_2_L1I_RFO_miss 0
Core_2_L1I_prefetches 0
Core_2_L1I_prefetch_hit 0
Core_2_L1I_prefetch_miss 0
Core_2_L1I_writebacks 0
Core_2_L1I_writeback_hit 0
Core_2_L1I_writeback_miss 0
Core_2_L1I_prefetch_requested 0
Core_2_L1I_prefetch_dropped 0
Core_2_L1I_prefetch_issued 0
Core_2_L1I_prefetch_filled 0
Core_2_L1I_prefetch_useful 0
Core_2_L1I_prefetch_useless 0
Core_2_L1I_prefetch_late 0
Core_2_L1I_average_miss_latency 109.01602

Core_2_L1I_rq_access 150716380
Core_2_L1I_rq_forward 0
Core_2_L1I_rq_merged 118366703
Core_2_L1I_rq_to_cache 32349677
Core_2_L1I_rq_full 0

Core_2_L1I_wq_access 0
Core_2_L1I_wq_forward 0
Core_2_L1I_wq_merged 0
Core_2_L1I_wq_to_cache 0
Core_2_L1I_wq_full 0

Core_2_L1I_pq_access 0
Core_2_L1I_pq_forward 0
Core_2_L1I_pq_merged 0
Core_2_L1I_pq_to_cache 0
Core_2_L1I_pq_full 0

Core_2_L1I_acc_epochs 179938
Core_2_L1I_acc_level_0 179938
Core_2_L1I_acc_level_1 0
Core_2_L1I_acc_level_2 0
Core_2_L1I_acc_level_3 0
Core_2_L1I_acc_level_4 0
Core_2_L1I_acc_level_5 0
Core_2_L1I_acc_level_6 0
Core_2_L1I_acc_level_7 0
Core_2_L1I_acc_level_8 0
Core_2_L1I_acc_level_9 0

Core_2_L2C_total_access 20620455
Core_2_L2C_total_hit 12796300
Core_2_L2C_total_miss 7824155
Core_2_L2C_loads 6546954
Core_2_L2C_load_hit 4747783
Core_2_L2C_load_miss 1799171
Core_2_L2C_RFOs 711768
Core_2_L2C_RFO_hit 320268
Core_2_L2C_RFO_miss 391500
Core_2_L2C_prefetches 12172500
Core_2_L2C_prefetch_hit 6733510
Core_2_L2C_prefetch_miss 5438990
Core_2_L2C_writebacks 1189233
Core_2_L2C_writeback_hit 994739
Core_2_L2C_writeback_miss 194494
Core_2_L2C_prefetch_requested 16432836
Core_2_L2C_prefetch_dropped 28177
Core_2_L2C_prefetch_issued 16404659
Core_2_L2C_prefetch_filled 6900115
Core_2_L2C_prefetch_useful 1574264
Core_2_L2C_prefetch_useless 5323898
Core_2_L2C_prefetch_late 155999
Core_2_L2C_average_miss_latency 113.78974

Core_2_L2C_rq_access 7280127
Core_2_L2C_rq_forward 0
Core_2_L2C_rq_merged 0
Core_2_L2C_rq_to_cache 7279470
Core_2_L2C_rq_full 0

Core_2_L2C_wq_access 1192673
Core_2_L2C_wq_forward 691
Core_2_L2C_wq_merged 0
Core_2_L2C_wq_to_cache 1192673
Core_2_L2C_wq_full 0

Core_2_L2C_pq_access 16404659
Core_2_L2C_pq_forward 0
Core_2_L2C_pq_merged 10423
Core_2_L2C_pq_to_cache 16394202
Core_2_L2C_pq_full 0

Core_2_L2C_acc_epochs 179938
Core_2_L2C_acc_level_0 22918
Core_2_L2C_acc_level_1 66203
Core_2_L2C_acc_level_2 38379
Core_2_L2C_acc_level_3 13426
Core_2_L2C_acc_level_4 5809
Core_2_L2C_acc_level_5 4745
Core_2_L2C_acc_level_6 5003
Core_2_L2C_acc_level_7 5751
Core_2_L2C_acc_level_8 7155
Core_2_L2C_acc_level_9 10549

Core_2_LLC_total_access 8398518
Core_2_LLC_total_hit 7384420
Core_2_LLC_total_miss 1014098
Core_2_LLC_loads 1644364
Core_2_LLC_load_hit 1559688
Core_2_LLC_load_miss 84676
Core_2_LLC_RFOs 390894
Core_2_LLC_RFO_hit 270322
Core_2_LLC_RFO_miss 120572
Core_2_LLC_prefetches 5594136
Core_2_LLC_prefetch_hit 4800534
Core_2_LLC_prefetch_miss 793602
Core_2_LLC_writebacks 769124
Core_2_LLC_writeback_hit 753876
Core_2_LLC_writeback_miss 15248
Core_2_LLC_prefetch_requested 0
Core_2_LLC_prefetch_dropped 0
Core_2_LLC_prefetch_issued 0
Core_2_LLC_prefetch_filled 4035662
Core_2_LLC_prefetch_useful 118784
Core_2_LLC_prefetch_useless 3834866
Core_2_LLC_prefetch_late 0
Core_2_LLC_average_miss_latency 719.72768

Core_2_LLC_rq_access 5823603
Core_2_LLC_rq_forward 0
Core_2_LLC_rq_merged 0
Core_2_LLC_rq_to_cache 5823006
Core_2_LLC_rq_full 0

Core_2_LLC_wq_access 2781899
Core_2_LLC_wq_forward 681
Core_2_LLC_wq_merged 0
Core_2_LLC_wq_to_cache 2781899
Core_2_LLC_wq_full 0

Core_2_LLC_pq_access 18341130
Core_2_LLC_pq_forward 0
Core_2_LLC_pq_merged 0
Core_2_LLC_pq_to_cache 18341042
Core_2_LLC_pq_full 0

Core_2_LLC_acc_epochs 714394
Core_2_LLC_acc_level_0 651115
Core_2_LLC_acc_level_1 32526
Core_2_LLC_acc_level_2 15322
Core_2_LLC_acc_level_3 3507
Core_2_LLC_acc_level_4 694
Core_2_LLC_acc_level_5 8013
Core_2_LLC_acc_level_6 611
Core_2_LLC_acc_level_7 607
Core_2_LLC_acc_level_8 150
Core_2_LLC_acc_level_9 1849

Core_2_major_page_fault 0
Core_2_minor_page_fault 16457

Core_3_instructions 150000000
Core_3_cycles 704564955
Core_3_IPC 0.21290

Core_3_branch_prediction_accuracy 97.22169
Core_3_branch_MPKI 5.06363
Core_3_average_ROB_occupancy_at_mispredict 84.61480

Core_3_L1D_total_access 24287430
Core_3_L1D_total_hit 21183608
Core_3_L1D_total_miss 3103822
Core_3_L1D_loads 14184271
Core_3_L1D_load_hit 11914645
Core_3_L1D_load_miss 2269626
Core_3_L1D_RFOs 10103159
Core_3_L1D_RFO_hit 9268963
Core_3_L1D_RFO_miss 834196
Core_3_L1D_prefetches 0
Core_3_L1D_prefetch_hit 0
Core_3_L1D_prefetch_miss 0
Core_3_L1D_writebacks 0
Core_3_L1D_writeback_hit 0
Core_3_L1D_writeback_miss 0
Core_3_L1D_prefetch_requested 0
Core_3_L1D_prefetch_dropped 0
Core_3_L1D_prefetch_issued 0
Core_3_L1D_prefetch_filled 0
Core_3_L1D_prefetch_useful 0
Core_3_L1D_prefetch_useless 0
Core_3_L1D_prefetch_late 0
Core_3_L1D_average_miss_latency 95.34747

Core_3_L1D_rq_access 26587840
Core_3_L1D_rq_forward 0
Core_3_L1D_rq_merged 11962347
Core_3_L1D_rq_to_cache 14622795
Core_3_L1D_rq_full 0

Core_3_L1D_wq_access 13216001
Core_3_L1D_wq_forward 2698
Core_3_L1D_wq_merged 43510
Core_3_L1D_wq_to_cache 13172491
Core_3_L1D_wq_full 6844

Core_3_L1D_pq_access 0
Core_3_L1D_pq_forward 0
Core_3_L1D_pq_merged 0
Core_3_L1D_pq_to_cache 0
Core_3_L1D_pq_full 0

Core_3_L1D_acc_epochs 170858
Core_3_L1D_acc_level_0 170858
Core_3_L1D_acc_level_1 0
Core_3_L1D_acc_level_2 0
Core_3_L1D_acc_level_3 0
Core_3_L1D_acc_level_4 0
Core_3_L1D_acc_level_5 0
Core_3_L1D_acc_level_6 0
Core_3_L1D_acc_level_7 0
Core_3_L1D_acc_level_8 0
Core_3_L1D_acc_level_9 0

Core_3_L1I_total_access 32553722
Core_3_L1I_total_hit 26552155
Core_3_L1I_total_miss 6001567
Core_3_L1I_loads 32553722
Core_3_L1I_load_hit 26552155
Core_3_L1I_load_miss 6001567
Core_3_L1I_RFOs 0
Core_3_L1I_RFO_hit 0
Core_3_L1I_RFO_miss 0
Core_3_L1I_prefetches 0
Core_3_L1I_prefetch_hit 0
Core_3_L1I_prefetch_miss 0
Core_3_L1I_writebacks 0
Core_3_L1I_writeback_hit 0
Core_3_L1I_writeback_miss 0
Core_3_L1I_prefetch_requested 0
Core_3_L1I_prefetch_dropped 0
Core_3_L1I_prefetch_issued 0
Core_3_L1I_prefetch_filled 0
Core_3_L1I_prefetch_useful 0
Core_3_L1I_prefetch_useless 0
Core_3_L1I_prefetch_late 0
Core_3_L1I_average_miss_latency 91.36552

Core_3_L1I_rq_access 150216215
Core_3_L1I_rq_forward 0
Core_3_L1I_rq_merged 114093303
Core_3_L1I_rq_to_cache 36122912
Core_3_L1I_rq_full 0

Core_3_L1I_wq_access 0
Core_3_L1I_wq_forward 0
Core_3_L1I_wq_merged 0
Core_3_L1I_wq_to_cache 0
Core_3_L1I_wq_full 0

Core_3_L1I_pq_access 0
Core_3_L1I_pq_forward 0
Core_3_L1I_pq_merged 0
Core_3_L1I_pq_to_cache 0
Core_3_L1I_pq_full 0

Core_3_L1I_acc_epochs 170858
Core_3_L1I_acc_level_0 170858
Core_3_L1I_acc_level_1 0
Core_3_L1I_acc_level_2 0
Core_3_L1I_acc_level_3 0
Core_3_L1I_acc_level_4 0
Core_3_L1I_acc_level_5 0
Core_3_L1I_acc_level_6 0
Core_3_L1I_acc_level_7 0
Core_3_L1I_acc_level_8 0
Core_3_L1I_acc_level_9 0

Core_3_L2C_total_access 21869050
Core_3_L2C_total_hit 17533385
Core_3_L2C_total_miss 4335665
Core_3_L2C_loads 8270709
Core_3_L2C_load_hit 7231491
Core_3_L2C_load_miss 1039218
Core_3_L2C_RFOs 833857
Core_3_L2C_RFO_hit 394619
Core_3_L2C_RFO_miss 439238
Core_3_L2C_prefetches 11563481
Core_3_L2C_prefetch_hit 8795298
Core_3_L2C_prefetch_miss 2768183
Core_3_L2C_writebacks 1201003
Core_3_L2C_writeback_hit 1111977
Core_3_L2C_writeback_miss 89026
Core_3_L2C_prefetch_requested 15658530
Core_3_L2C_prefetch_dropped 7046
Core_3_L2C_prefetch_issued 15651484
Core_3_L2C_prefetch_filled 3695866
Core_3_L2C_prefetch_useful 1066100
Core_3_L2C_prefetch_useless 2627885
Core_3_L2C_prefetch_late 176911
Core_3_L2C_average_miss_latency 116.67564

Core_3_L2C_rq_access 9119949
Core_3_L2C_rq_forward 0
Core_3_L2C_rq_merged 0
Core_3_L2C_rq_to_cache 9119125
Core_3_L2C_rq_full 0

Core_3_L2C_wq_access 1203203
Core_3_L2C_wq_forward 846
Core_3_L2C_wq_merged 0
Core_3_L2C_wq_to_cache 1203203
Core_3_L2C_wq_full 0

Core_3_L2C_pq_access 15651484
Core_3_L2C_pq_forward 0
Core_3_L2C_pq_merged 12642
Core_3_L2C_pq_to_cache 15638820
Core_3_L2C_pq_full 0

Core_3_L2C_acc_epochs 170858
Core_3_L2C_acc_level_0 36627
Core_3_L2C_acc_level_1 47050
Core_3_L2C_acc_level_2 32658
Core_3_L2C_acc_level_3 17386
Core_3_L2C_acc_level_4 9289
Core_3_L2C_acc_level_5 6466
Core_3_L2C_acc_level_6 4982
Core_3_L2C_acc_level_7 3999
Core_3_L2C_acc_level_8 2809
Core_3_L2C_acc_level_9 9592

Core_3_LLC_total_access 4907273
Core_3_LLC_total_hit 3915426
Core_3_LLC_total_miss 991847
Core_3_LLC_loads 863313
Core_3_LLC_load_hit 766446
Core_3_LLC_load_miss 96867
Core_3_LLC_RFOs 438929
Core_3_LLC_RFO_hit 255644
Core_3_LLC_RFO_miss 183285
Core_3_LLC_prefetches 2944265
Core_3_LLC_prefetch_hit 2261804
Core_3_LLC_prefetch_miss 682461
Core_3_LLC_writebacks 660766
Core_3_LLC_writeback_hit 631532
Core_3_LLC_writeback_miss 29234
Core_3_LLC_prefetch_requested 0
Core_3_LLC_prefetch_dropped 0
Core_3_LLC_prefetch_issued 0
Core_3_LLC_prefetch_filled 4035662
Core_3_LLC_prefetch_useful 118784
Core_3_LLC_prefetch_useless 3834866
Core_3_LLC_prefetch_late 0
Core_3_LLC_average_miss_latency 735.87398

Core_3_LLC_rq_access 5823603
Core_3_LLC_rq_forward 0
Core_3_LLC_rq_merged 0
Core_3_LLC_rq_to_cache 5823006
Core_3_LLC_rq_full 0

Core_3_LLC_wq_access 2781899
Core_3_LLC_wq_forward 681
Core_3_LLC_wq_merged 0
Core_3_LLC_wq_to_cache 2781899
Core_3_LLC_wq_full 0

Core_3_LLC_pq_access 18341130
Core_3_LLC_pq_forward 0
Core_3_LLC_pq_merged 0
Core_3_LLC_pq_to_cache 18341042
Core_3_LLC_pq_full 0

Core_3_LLC_acc_epochs 714394
Core_3_LLC_acc_level_0 651115
Core_3_LLC_acc_level_1 32526
Core_3_LLC_acc_level_2 15322
Core_3_LLC_acc_level_3 3507
Core_3_LLC_acc_level_4 694
Core_3_LLC_acc_level_5 8013
Core_3_LLC_acc_level_6 611
Core_3_LLC_acc_level_7 607
Core_3_LLC_acc_level_8 150
Core_3_LLC_acc_level_9 1849

Core_3_major_page_fault 0
Core_3_minor_page_fault 16878

Channel_0_RQ_row_buffer_hit 573918
Channel_0_RQ_row_buffer_miss 1476704
Channel_0_WQ_row_buffer_hit 71022
Channel_0_WQ_row_buffer_miss 372401
Channel_0_WQ_full 0
Channel_0_dbus_congested 768767

Channel_1_RQ_row_buffer_hit 573801
Channel_1_RQ_row_buffer_miss 1475139
Channel_1_WQ_row_buffer_hit 70063
Channel_1_WQ_row_buffer_miss 371544
Channel_1_WQ_full 0
Channel_1_dbus_congested 766203

avg_congested_cycle 9

DRAM_bw_pochs 2857576
DRAM_bw_level_0 2633943
DRAM_bw_level_1 155738
DRAM_bw_level_2 46436
DRAM_bw_level_3 21459
