*************************************************
   ChampSim Multicore Out-of-Order Simulator
   Last compiled: Mar 31 2025 20:14:32
*************************************************
parsing config file: /data3/config/spp_ppf_dev.ini

trace_0 /data3/STREAMING/traces/streaming_phase0_core0.trace.xz
trace_1 /data3/STREAMING/traces/streaming_phase0_core1.trace.xz
trace_2 /data3/STREAMING/traces/streaming_phase0_core2.trace.xz
trace_3 /data3/STREAMING/traces/streaming_phase0_core3.trace.xz
adding L2C_PREFETCHER: SPP_PPF_dev
Initialize SIGNATURE TABLE
ST_SET: 1
ST_WAY: 256
ST_TAG_BIT: 16
ST_TAG_MASK: ffff

Initialize PATTERN TABLE
PT_SET: 2048
PT_WAY: 4
SIG_DELTA_BIT: 7
C_SIG_BIT: 4
C_DELTA_BIT: 4

Initialize PREFETCH FILTER
FILTER_SET: 1024

Initialize PERCEPTRON
PERC_ENTRIES: 4096
PERC_FEATURES: 9
Initialize SIGNATURE TABLE
ST_SET: 1
ST_WAY: 256
ST_TAG_BIT: 16
ST_TAG_MASK: ffff

Initialize PATTERN TABLE
PT_SET: 2048
PT_WAY: 4
SIG_DELTA_BIT: 7
C_SIG_BIT: 4
C_DELTA_BIT: 4

Initialize PREFETCH FILTER
FILTER_SET: 1024

Initialize PERCEPTRON
PERC_ENTRIES: 4096
PERC_FEATURES: 9
PERC_THRESH_HI: -5
PERC_THRESH_LO: -15

adding L2C_PREFETCHER: SPP_PPF_dev
Initialize SIGNATURE TABLE
ST_SET: 1
ST_WAY: 256
ST_TAG_BIT: 16
ST_TAG_MASK: ffff

Initialize PATTERN TABLE
PT_SET: 2048
PT_WAY: 4
SIG_DELTA_BIT: 7
C_SIG_BIT: 4
C_DELTA_BIT: 4

Initialize PREFETCH FILTER
FILTER_SET: 1024

Initialize PERCEPTRON
PERC_ENTRIES: 4096
PERC_FEATURES: 9
Initialize SIGNATURE TABLE
ST_SET: 1
ST_WAY: 256
ST_TAG_BIT: 16
ST_TAG_MASK: ffff

Initialize PATTERN TABLE
PT_SET: 2048
PT_WAY: 4
SIG_DELTA_BIT: 7
C_SIG_BIT: 4
C_DELTA_BIT: 4

Initialize PREFETCH FILTER
FILTER_SET: 1024

Initialize PERCEPTRON
PERC_ENTRIES: 4096
PERC_FEATURES: 9
PERC_THRESH_HI: -5
PERC_THRESH_LO: -15

adding L2C_PREFETCHER: SPP_PPF_dev
Initialize SIGNATURE TABLE
ST_SET: 1
ST_WAY: 256
ST_TAG_BIT: 16
ST_TAG_MASK: ffff

Initialize PATTERN TABLE
PT_SET: 2048
PT_WAY: 4
SIG_DELTA_BIT: 7
C_SIG_BIT: 4
C_DELTA_BIT: 4

Initialize PREFETCH FILTER
FILTER_SET: 1024

Initialize PERCEPTRON
PERC_ENTRIES: 4096
PERC_FEATURES: 9
Initialize SIGNATURE TABLE
ST_SET: 1
ST_WAY: 256
ST_TAG_BIT: 16
ST_TAG_MASK: ffff

Initialize PATTERN TABLE
PT_SET: 2048
PT_WAY: 4
SIG_DELTA_BIT: 7
C_SIG_BIT: 4
C_DELTA_BIT: 4

Initialize PREFETCH FILTER
FILTER_SET: 1024

Initialize PERCEPTRON
PERC_ENTRIES: 4096
PERC_FEATURES: 9
PERC_THRESH_HI: -5
PERC_THRESH_LO: -15

adding L2C_PREFETCHER: SPP_PPF_dev
Initialize SIGNATURE TABLE
ST_SET: 1
ST_WAY: 256
ST_TAG_BIT: 16
ST_TAG_MASK: ffff

Initialize PATTERN TABLE
PT_SET: 2048
PT_WAY: 4
SIG_DELTA_BIT: 7
C_SIG_BIT: 4
C_DELTA_BIT: 4

Initialize PREFETCH FILTER
FILTER_SET: 1024

Initialize PERCEPTRON
PERC_ENTRIES: 4096
PERC_FEATURES: 9
Initialize SIGNATURE TABLE
ST_SET: 1
ST_WAY: 256
ST_TAG_BIT: 16
ST_TAG_MASK: ffff

Initialize PATTERN TABLE
PT_SET: 2048
PT_WAY: 4
SIG_DELTA_BIT: 7
C_SIG_BIT: 4
C_DELTA_BIT: 4

Initialize PREFETCH FILTER
FILTER_SET: 1024

Initialize PERCEPTRON
PERC_ENTRIES: 4096
PERC_FEATURES: 9
PERC_THRESH_HI: -5
PERC_THRESH_LO: -15

Initialize SHIP state
warmup_instructions 50000000
simulation_instructions 150000000
champsim_seed 8846
measure_ipc 0
measure_ipc_epoch 1000
measure_dram_bw 1
measure_dram_bw_epoch 256
measure_cache_acc 1
measure_cache_acc_epoch 1024
l1d_perfect 0
l2c_perfect 0
llc_perfect 0
l1d_semi_perfect 0
l2c_semi_perfect 0
llc_semi_perfect 0
semi_perfect_cache_page_buffer_size 64

num_cpus 4
cpu_freq 4000
dram_io_freq 2400
page_size 4096
block_size 64
max_read_per_cycle 8
max_fill_per_cycle 1
dram_channels 2
log2_dram_channels 1
dram_ranks 1
dram_banks 8
dram_rows 65536
dram_columns 128
dram_row_size 8
dram_size 8192
dram_pages 2097152

fetch_width 6
decode_width 6
exec_width 4
lq_width 2
sq_width 2
retire_width 4
scheduler_size 128
branch_mispredict_penalty 20
rob_size 256
lq_size 72
sq_size 56
num_instr_destinations_sparc 4
num_instr_destinations 2
num_instr_sources 4

itlb_set 16
itlb_way 8
itlb_rq_size 16
itlb_wq_size 16
itlb_pq_size 0
itlb_mshr_size 8
itlb_latency 1

dtlb_set 16
dtlb_way 4
dtlb_rq_size 16
dtlb_wq_size 16
dtlb_pq_size 0
dtlb_mshr_size 8
dtlb_latency 1

stlb_set 128
stlb_way 12
stlb_rq_size 32
stlb_wq_size 32
stlb_pq_size 0
stlb_mshr_size 16
stlb_latency 8

l1i_size 32
l1i_set 64
l1i_way 8
l1i_rq_size 64
l1i_wq_size 64
l1i_pq_size 8
l1i_mshr_size 8
l1i_latency 1

l1d_size 32
l1d_set 64
l1d_way 8
l1d_rq_size 64
l1d_wq_size 64
l1d_pq_size 8
l1d_mshr_size 16
l1d_latency 4

l2c_size 256
l2c_set 512
l2c_way 8
l2c_rq_size 32
l2c_wq_size 32
l2c_pq_size 32
l2c_mshr_size 32
l2c_latency 10

llc_size 8192
llc_set 8192
llc_way 16
llc_rq_size 128
llc_wq_size 128
llc_pq_size 128
llc_mshr_size 256
llc_latency 20

dram_channel_width 8
dram_wq_size 64
dram_rq_size 64
tRP 15
tRCD 15
tCAS 12.5
dram_dbus_turn_around_time 30
dram_write_high_wm 56
dram_write_low_wm 48
min_dram_writes_per_switch 16
dram_mtps 2400
dram_dbus_return_time 13


Heartbeat CPU  2 instructions:    1000002 cycles:     302749 heartbeat IPC: 3.30307 cumulative IPC: 3.30307 (Simulation time: 0 hr 0 min 5 sec) 
Heartbeat CPU  1 instructions:    1000002 cycles:     322184 heartbeat IPC: 3.10382 cumulative IPC: 3.10382 (Simulation time: 0 hr 0 min 6 sec) 
Heartbeat CPU  0 instructions:    1000002 cycles:     323872 heartbeat IPC: 3.08765 cumulative IPC: 3.08765 (Simulation time: 0 hr 0 min 6 sec) 
Heartbeat CPU  3 instructions:    1000000 cycles:     344370 heartbeat IPC: 2.90385 cumulative IPC: 2.90385 (Simulation time: 0 hr 0 min 6 sec) 
Heartbeat CPU  2 instructions:    2000001 cycles:     583222 heartbeat IPC: 3.56540 cumulative IPC: 3.42923 (Simulation time: 0 hr 0 min 11 sec) 
Heartbeat CPU  1 instructions:    2000000 cycles:     609180 heartbeat IPC: 3.48436 cumulative IPC: 3.28310 (Simulation time: 0 hr 0 min 11 sec) 
Heartbeat CPU  0 instructions:    2000003 cycles:     611770 heartbeat IPC: 3.47346 cumulative IPC: 3.26921 (Simulation time: 0 hr 0 min 11 sec) 
Heartbeat CPU  3 instructions:    2000001 cycles:     631962 heartbeat IPC: 3.47715 cumulative IPC: 3.16475 (Simulation time: 0 hr 0 min 12 sec) 
Heartbeat CPU  2 instructions:    3000000 cycles:     847752 heartbeat IPC: 3.78029 cumulative IPC: 3.53877 (Simulation time: 0 hr 0 min 16 sec) 
Heartbeat CPU  1 instructions:    3000003 cycles:     881236 heartbeat IPC: 3.67572 cumulative IPC: 3.40431 (Simulation time: 0 hr 0 min 17 sec) 
Heartbeat CPU  0 instructions:    3000001 cycles:     890329 heartbeat IPC: 3.58990 cumulative IPC: 3.36954 (Simulation time: 0 hr 0 min 17 sec) 
Heartbeat CPU  3 instructions:    3000000 cycles:     906101 heartbeat IPC: 3.64778 cumulative IPC: 3.31089 (Simulation time: 0 hr 0 min 17 sec) 
Heartbeat CPU  2 instructions:    4000000 cycles:    1122104 heartbeat IPC: 3.64495 cumulative IPC: 3.56473 (Simulation time: 0 hr 0 min 22 sec) 
Heartbeat CPU  1 instructions:    4000000 cycles:    1146732 heartbeat IPC: 3.76652 cumulative IPC: 3.48817 (Simulation time: 0 hr 0 min 22 sec) 
Heartbeat CPU  0 instructions:    4000000 cycles:    1154695 heartbeat IPC: 3.78263 cumulative IPC: 3.46412 (Simulation time: 0 hr 0 min 23 sec) 
Heartbeat CPU  3 instructions:    4000000 cycles:    1180922 heartbeat IPC: 3.63873 cumulative IPC: 3.38718 (Simulation time: 0 hr 0 min 23 sec) 
Heartbeat CPU  2 instructions:    5000000 cycles:    1406271 heartbeat IPC: 3.51906 cumulative IPC: 3.55550 (Simulation time: 0 hr 0 min 27 sec) 
Heartbeat CPU  1 instructions:    5000001 cycles:    1413583 heartbeat IPC: 3.74741 cumulative IPC: 3.53711 (Simulation time: 0 hr 0 min 28 sec) 
Heartbeat CPU  0 instructions:    5000001 cycles:    1436325 heartbeat IPC: 3.55076 cumulative IPC: 3.48111 (Simulation time: 0 hr 0 min 28 sec) 
Heartbeat CPU  3 instructions:    5000003 cycles:    1616647 heartbeat IPC: 2.29503 cumulative IPC: 3.09282 (Simulation time: 0 hr 0 min 32 sec) 
Heartbeat CPU  2 instructions:    6000003 cycles:    1674008 heartbeat IPC: 3.73502 cumulative IPC: 3.58421 (Simulation time: 0 hr 0 min 33 sec) 
Heartbeat CPU  1 instructions:    6000000 cycles:    1675929 heartbeat IPC: 3.81176 cumulative IPC: 3.58010 (Simulation time: 0 hr 0 min 33 sec) 
Heartbeat CPU  0 instructions:    6000003 cycles:    1712825 heartbeat IPC: 3.61664 cumulative IPC: 3.50299 (Simulation time: 0 hr 0 min 34 sec) 
Heartbeat CPU  2 instructions:    7000000 cycles:    1941293 heartbeat IPC: 3.74131 cumulative IPC: 3.60584 (Simulation time: 0 hr 0 min 38 sec) 
Heartbeat CPU  1 instructions:    7000003 cycles:    1951803 heartbeat IPC: 3.62485 cumulative IPC: 3.58643 (Simulation time: 0 hr 0 min 39 sec) 
Heartbeat CPU  0 instructions:    7000000 cycles:    1985359 heartbeat IPC: 3.66926 cumulative IPC: 3.52581 (Simulation time: 0 hr 0 min 39 sec) 
Heartbeat CPU  3 instructions:    6000001 cycles:    2080221 heartbeat IPC: 2.15715 cumulative IPC: 2.88431 (Simulation time: 0 hr 0 min 41 sec) 
Heartbeat CPU  2 instructions:    8000000 cycles:    2224301 heartbeat IPC: 3.53347 cumulative IPC: 3.59664 (Simulation time: 0 hr 0 min 44 sec) 
Heartbeat CPU  1 instructions:    8000000 cycles:    2243745 heartbeat IPC: 3.42533 cumulative IPC: 3.56547 (Simulation time: 0 hr 0 min 44 sec) 
Heartbeat CPU  0 instructions:    8000000 cycles:    2259261 heartbeat IPC: 3.65094 cumulative IPC: 3.54098 (Simulation time: 0 hr 0 min 45 sec) 
Heartbeat CPU  3 instructions:    7000000 cycles:    2457101 heartbeat IPC: 2.65336 cumulative IPC: 2.84889 (Simulation time: 0 hr 0 min 48 sec) 
Heartbeat CPU  2 instructions:    9000002 cycles:    2500864 heartbeat IPC: 3.61582 cumulative IPC: 3.59876 (Simulation time: 0 hr 0 min 49 sec) 
Heartbeat CPU  1 instructions:    9000000 cycles:    2522407 heartbeat IPC: 3.58858 cumulative IPC: 3.56802 (Simulation time: 0 hr 0 min 49 sec) 
Heartbeat CPU  3 instructions:    8000000 cycles:    2735821 heartbeat IPC: 3.58783 cumulative IPC: 2.92417 (Simulation time: 0 hr 0 min 53 sec) 
Heartbeat CPU  2 instructions:   10000001 cycles:    2791450 heartbeat IPC: 3.44132 cumulative IPC: 3.58237 (Simulation time: 0 hr 0 min 54 sec) 
Heartbeat CPU  0 instructions:    9000000 cycles:    2799481 heartbeat IPC: 1.85110 cumulative IPC: 3.21488 (Simulation time: 0 hr 0 min 54 sec) 
Heartbeat CPU  1 instructions:   10000000 cycles:    2933554 heartbeat IPC: 2.43222 cumulative IPC: 3.40883 (Simulation time: 0 hr 0 min 56 sec) 
Heartbeat CPU  3 instructions:    9000001 cycles:    3000644 heartbeat IPC: 3.77611 cumulative IPC: 2.99936 (Simulation time: 0 hr 0 min 57 sec) 
Heartbeat CPU  2 instructions:   11000002 cycles:    3089704 heartbeat IPC: 3.35285 cumulative IPC: 3.56021 (Simulation time: 0 hr 0 min 59 sec) 
Heartbeat CPU  3 instructions:   10000001 cycles:    3280068 heartbeat IPC: 3.57879 cumulative IPC: 3.04872 (Simulation time: 0 hr 1 min 2 sec) 
Heartbeat CPU  0 instructions:   10000000 cycles:    3315085 heartbeat IPC: 1.93947 cumulative IPC: 3.01651 (Simulation time: 0 hr 1 min 3 sec) 
Heartbeat CPU  2 instructions:   12000000 cycles:    3440369 heartbeat IPC: 2.85172 cumulative IPC: 3.48800 (Simulation time: 0 hr 1 min 5 sec) 
Heartbeat CPU  1 instructions:   11000003 cycles:    3505391 heartbeat IPC: 1.74876 cumulative IPC: 3.13802 (Simulation time: 0 hr 1 min 6 sec) 
Heartbeat CPU  3 instructions:   11000002 cycles:    3546974 heartbeat IPC: 3.74664 cumulative IPC: 3.10124 (Simulation time: 0 hr 1 min 7 sec) 
Heartbeat CPU  2 instructions:   13000000 cycles:    3732751 heartbeat IPC: 3.42018 cumulative IPC: 3.48269 (Simulation time: 0 hr 1 min 10 sec) 
Heartbeat CPU  0 instructions:   11000002 cycles:    3818378 heartbeat IPC: 1.98692 cumulative IPC: 2.88080 (Simulation time: 0 hr 1 min 11 sec) 
Heartbeat CPU  1 instructions:   12000000 cycles:    3986928 heartbeat IPC: 2.07668 cumulative IPC: 3.00984 (Simulation time: 0 hr 1 min 14 sec) 
Heartbeat CPU  2 instructions:   14000003 cycles:    4020301 heartbeat IPC: 3.47767 cumulative IPC: 3.48233 (Simulation time: 0 hr 1 min 15 sec) 
Heartbeat CPU  3 instructions:   12000000 cycles:    4099814 heartbeat IPC: 1.80884 cumulative IPC: 2.92696 (Simulation time: 0 hr 1 min 16 sec) 
Heartbeat CPU  2 instructions:   15000000 cycles:    4308331 heartbeat IPC: 3.47185 cumulative IPC: 3.48163 (Simulation time: 0 hr 1 min 19 sec) 
Heartbeat CPU  3 instructions:   13000002 cycles:    4392761 heartbeat IPC: 3.41359 cumulative IPC: 2.95941 (Simulation time: 0 hr 1 min 21 sec) 
Heartbeat CPU  0 instructions:   12000000 cycles:    4400133 heartbeat IPC: 1.71893 cumulative IPC: 2.72719 (Simulation time: 0 hr 1 min 21 sec) 
Heartbeat CPU  1 instructions:   13000003 cycles:    4528015 heartbeat IPC: 1.84814 cumulative IPC: 2.87102 (Simulation time: 0 hr 1 min 23 sec) 
Heartbeat CPU  2 instructions:   16000000 cycles:    4600374 heartbeat IPC: 3.42415 cumulative IPC: 3.47798 (Simulation time: 0 hr 1 min 25 sec) 
Heartbeat CPU  3 instructions:   14000001 cycles:    4672249 heartbeat IPC: 3.57797 cumulative IPC: 2.99642 (Simulation time: 0 hr 1 min 26 sec) 
Heartbeat CPU  2 instructions:   17000001 cycles:    4890349 heartbeat IPC: 3.44858 cumulative IPC: 3.47623 (Simulation time: 0 hr 1 min 30 sec) 
Heartbeat CPU  3 instructions:   15000001 cycles:    4940127 heartbeat IPC: 3.73304 cumulative IPC: 3.03636 (Simulation time: 0 hr 1 min 31 sec) 
Heartbeat CPU  0 instructions:   13000001 cycles:    4948628 heartbeat IPC: 1.82317 cumulative IPC: 2.62699 (Simulation time: 0 hr 1 min 31 sec) 
Heartbeat CPU  1 instructions:   14000000 cycles:    5023566 heartbeat IPC: 2.01795 cumulative IPC: 2.78686 (Simulation time: 0 hr 1 min 32 sec) 
Heartbeat CPU  2 instructions:   18000002 cycles:    5179288 heartbeat IPC: 3.46094 cumulative IPC: 3.47538 (Simulation time: 0 hr 1 min 35 sec) 
Heartbeat CPU  3 instructions:   16000000 cycles:    5206195 heartbeat IPC: 3.75843 cumulative IPC: 3.07326 (Simulation time: 0 hr 1 min 36 sec) 
Heartbeat CPU  3 instructions:   17000001 cycles:    5470925 heartbeat IPC: 3.77744 cumulative IPC: 3.10734 (Simulation time: 0 hr 1 min 41 sec) 
Heartbeat CPU  2 instructions:   19000002 cycles:    5474252 heartbeat IPC: 3.39024 cumulative IPC: 3.47079 (Simulation time: 0 hr 1 min 41 sec) 
Heartbeat CPU  1 instructions:   15000002 cycles:    5493740 heartbeat IPC: 2.12688 cumulative IPC: 2.73038 (Simulation time: 0 hr 1 min 41 sec) 
Heartbeat CPU  0 instructions:   14000001 cycles:    5520908 heartbeat IPC: 1.74740 cumulative IPC: 2.53582 (Simulation time: 0 hr 1 min 42 sec) 
Heartbeat CPU  3 instructions:   18000000 cycles:    5742618 heartbeat IPC: 3.68062 cumulative IPC: 3.13446 (Simulation time: 0 hr 1 min 46 sec) 
Heartbeat CPU  2 instructions:   20000000 cycles:    5824608 heartbeat IPC: 2.85423 cumulative IPC: 3.43371 (Simulation time: 0 hr 1 min 47 sec) 
Heartbeat CPU  1 instructions:   16000000 cycles:    5950488 heartbeat IPC: 2.18939 cumulative IPC: 2.68886 (Simulation time: 0 hr 1 min 50 sec) 
Heartbeat CPU  3 instructions:   19000000 cycles:    6017512 heartbeat IPC: 3.63777 cumulative IPC: 3.15745 (Simulation time: 0 hr 1 min 51 sec) 
Heartbeat CPU  0 instructions:   15000002 cycles:    6042839 heartbeat IPC: 1.91596 cumulative IPC: 2.48228 (Simulation time: 0 hr 1 min 52 sec) 
Heartbeat CPU  2 instructions:   21000003 cycles:    6121453 heartbeat IPC: 3.36877 cumulative IPC: 3.43056 (Simulation time: 0 hr 1 min 53 sec) 
Heartbeat CPU  3 instructions:   20000000 cycles:    6408796 heartbeat IPC: 2.55569 cumulative IPC: 3.12071 (Simulation time: 0 hr 1 min 58 sec) 
Heartbeat CPU  1 instructions:   17000003 cycles:    6423660 heartbeat IPC: 2.11340 cumulative IPC: 2.64647 (Simulation time: 0 hr 1 min 59 sec) 
Heartbeat CPU  2 instructions:   22000002 cycles:    6460502 heartbeat IPC: 2.94942 cumulative IPC: 3.40531 (Simulation time: 0 hr 1 min 59 sec) 
Heartbeat CPU  0 instructions:   16000000 cycles:    6507483 heartbeat IPC: 2.15218 cumulative IPC: 2.45871 (Simulation time: 0 hr 2 min 0 sec) 
Heartbeat CPU  2 instructions:   23000001 cycles:    6763998 heartbeat IPC: 3.29493 cumulative IPC: 3.40036 (Simulation time: 0 hr 2 min 4 sec) 
Heartbeat CPU  1 instructions:   18000001 cycles:    6912169 heartbeat IPC: 2.04704 cumulative IPC: 2.60410 (Simulation time: 0 hr 2 min 6 sec) 
Heartbeat CPU  3 instructions:   21000001 cycles:    6953139 heartbeat IPC: 1.83708 cumulative IPC: 3.02022 (Simulation time: 0 hr 2 min 7 sec) 
Heartbeat CPU  0 instructions:   17000000 cycles:    7049300 heartbeat IPC: 1.84564 cumulative IPC: 2.41159 (Simulation time: 0 hr 2 min 8 sec) 
Heartbeat CPU  1 instructions:   19000002 cycles:    7411641 heartbeat IPC: 2.00212 cumulative IPC: 2.56354 (Simulation time: 0 hr 2 min 14 sec) 
Heartbeat CPU  3 instructions:   22000003 cycles:    7478249 heartbeat IPC: 1.90437 cumulative IPC: 2.94187 (Simulation time: 0 hr 2 min 15 sec) 
Heartbeat CPU  2 instructions:   24000000 cycles:    7522716 heartbeat IPC: 1.31801 cumulative IPC: 3.19034 (Simulation time: 0 hr 2 min 15 sec) 
Heartbeat CPU  0 instructions:   18000001 cycles:    7538394 heartbeat IPC: 2.04460 cumulative IPC: 2.38778 (Simulation time: 0 hr 2 min 16 sec) 
Heartbeat CPU  1 instructions:   20000000 cycles:    7904819 heartbeat IPC: 2.02766 cumulative IPC: 2.53010 (Simulation time: 0 hr 2 min 21 sec) 
Heartbeat CPU  3 instructions:   23000003 cycles:    7989048 heartbeat IPC: 1.95772 cumulative IPC: 2.87894 (Simulation time: 0 hr 2 min 23 sec) 
Heartbeat CPU  0 instructions:   19000002 cycles:    8032851 heartbeat IPC: 2.02242 cumulative IPC: 2.36529 (Simulation time: 0 hr 2 min 23 sec) 
Heartbeat CPU  2 instructions:   25000003 cycles:    8130485 heartbeat IPC: 1.64537 cumulative IPC: 3.07485 (Simulation time: 0 hr 2 min 25 sec) 
Heartbeat CPU  1 instructions:   21000002 cycles:    8380165 heartbeat IPC: 2.10373 cumulative IPC: 2.50592 (Simulation time: 0 hr 2 min 28 sec) 
Heartbeat CPU  0 instructions:   20000000 cycles:    8497583 heartbeat IPC: 2.15177 cumulative IPC: 2.35361 (Simulation time: 0 hr 2 min 30 sec) 
Heartbeat CPU  3 instructions:   24000000 cycles:    8623874 heartbeat IPC: 1.57523 cumulative IPC: 2.78297 (Simulation time: 0 hr 2 min 32 sec) 
Heartbeat CPU  2 instructions:   26000000 cycles:    8709955 heartbeat IPC: 1.72571 cumulative IPC: 2.98509 (Simulation time: 0 hr 2 min 33 sec) 
Heartbeat CPU  1 instructions:   22000000 cycles:    8859995 heartbeat IPC: 2.08407 cumulative IPC: 2.48307 (Simulation time: 0 hr 2 min 36 sec) 
Heartbeat CPU  0 instructions:   21000003 cycles:    9027858 heartbeat IPC: 1.88582 cumulative IPC: 2.32613 (Simulation time: 0 hr 2 min 39 sec) 
Heartbeat CPU  3 instructions:   25000001 cycles:    9056751 heartbeat IPC: 2.31013 cumulative IPC: 2.76037 (Simulation time: 0 hr 2 min 39 sec) 
Heartbeat CPU  2 instructions:   27000002 cycles:    9297267 heartbeat IPC: 1.70268 cumulative IPC: 2.90408 (Simulation time: 0 hr 2 min 43 sec) 
Heartbeat CPU  1 instructions:   23000001 cycles:    9340199 heartbeat IPC: 2.08245 cumulative IPC: 2.46247 (Simulation time: 0 hr 2 min 44 sec) 
Heartbeat CPU  3 instructions:   26000000 cycles:    9499723 heartbeat IPC: 2.25748 cumulative IPC: 2.73692 (Simulation time: 0 hr 2 min 46 sec) 
Heartbeat CPU  0 instructions:   22000003 cycles:    9533821 heartbeat IPC: 1.97643 cumulative IPC: 2.30757 (Simulation time: 0 hr 2 min 47 sec) 
Heartbeat CPU  2 instructions:   28000000 cycles:    9851061 heartbeat IPC: 1.80572 cumulative IPC: 2.84233 (Simulation time: 0 hr 2 min 52 sec) 
Heartbeat CPU  1 instructions:   24000000 cycles:    9863106 heartbeat IPC: 1.91238 cumulative IPC: 2.43331 (Simulation time: 0 hr 2 min 52 sec) 
Heartbeat CPU  3 instructions:   27000000 cycles:    9995109 heartbeat IPC: 2.01863 cumulative IPC: 2.70132 (Simulation time: 0 hr 2 min 54 sec) 
Heartbeat CPU  0 instructions:   23000001 cycles:   10031714 heartbeat IPC: 2.00846 cumulative IPC: 2.29273 (Simulation time: 0 hr 2 min 54 sec) 
Heartbeat CPU  1 instructions:   25000000 cycles:   10391666 heartbeat IPC: 1.89193 cumulative IPC: 2.40577 (Simulation time: 0 hr 3 min 0 sec) 
Heartbeat CPU  2 instructions:   29000003 cycles:   10412583 heartbeat IPC: 1.78088 cumulative IPC: 2.78509 (Simulation time: 0 hr 3 min 1 sec) 
Heartbeat CPU  3 instructions:   28000000 cycles:   10424383 heartbeat IPC: 2.32951 cumulative IPC: 2.68601 (Simulation time: 0 hr 3 min 1 sec) 
Heartbeat CPU  0 instructions:   24000000 cycles:   10543264 heartbeat IPC: 1.95484 cumulative IPC: 2.27634 (Simulation time: 0 hr 3 min 3 sec) 
Heartbeat CPU  3 instructions:   29000000 cycles:   10867089 heartbeat IPC: 2.25884 cumulative IPC: 2.66861 (Simulation time: 0 hr 3 min 7 sec) 
Heartbeat CPU  1 instructions:   26000000 cycles:   10916786 heartbeat IPC: 1.90433 cumulative IPC: 2.38165 (Simulation time: 0 hr 3 min 8 sec) 
Heartbeat CPU  2 instructions:   30000001 cycles:   11002919 heartbeat IPC: 1.69395 cumulative IPC: 2.72655 (Simulation time: 0 hr 3 min 9 sec) 
Heartbeat CPU  0 instructions:   25000000 cycles:   11114686 heartbeat IPC: 1.75002 cumulative IPC: 2.24928 (Simulation time: 0 hr 3 min 11 sec) 
Heartbeat CPU  3 instructions:   30000000 cycles:   11336520 heartbeat IPC: 2.13024 cumulative IPC: 2.64631 (Simulation time: 0 hr 3 min 15 sec) 
Heartbeat CPU  1 instructions:   27000003 cycles:   11427844 heartbeat IPC: 1.95673 cumulative IPC: 2.36265 (Simulation time: 0 hr 3 min 16 sec) 
Heartbeat CPU  2 instructions:   31000002 cycles:   11585592 heartbeat IPC: 1.71623 cumulative IPC: 2.67574 (Simulation time: 0 hr 3 min 19 sec) 
Heartbeat CPU  0 instructions:   26000001 cycles:   11618775 heartbeat IPC: 1.98378 cumulative IPC: 2.23776 (Simulation time: 0 hr 3 min 19 sec) 
Heartbeat CPU  3 instructions:   31000003 cycles:   11800604 heartbeat IPC: 2.15479 cumulative IPC: 2.62698 (Simulation time: 0 hr 3 min 22 sec) 
Heartbeat CPU  1 instructions:   28000000 cycles:   11938697 heartbeat IPC: 1.95750 cumulative IPC: 2.34531 (Simulation time: 0 hr 3 min 24 sec) 
Heartbeat CPU  0 instructions:   27000000 cycles:   12119574 heartbeat IPC: 1.99681 cumulative IPC: 2.22780 (Simulation time: 0 hr 3 min 27 sec) 
Heartbeat CPU  2 instructions:   32000000 cycles:   12152194 heartbeat IPC: 1.76490 cumulative IPC: 2.63327 (Simulation time: 0 hr 3 min 28 sec) 
Heartbeat CPU  3 instructions:   32000000 cycles:   12250795 heartbeat IPC: 2.22127 cumulative IPC: 2.61208 (Simulation time: 0 hr 3 min 29 sec) 
Heartbeat CPU  1 instructions:   29000002 cycles:   12458198 heartbeat IPC: 1.92493 cumulative IPC: 2.32778 (Simulation time: 0 hr 3 min 33 sec) 
Heartbeat CPU  2 instructions:   33000001 cycles:   12572211 heartbeat IPC: 2.38086 cumulative IPC: 2.62484 (Simulation time: 0 hr 3 min 35 sec) 
Heartbeat CPU  0 instructions:   28000000 cycles:   12620593 heartbeat IPC: 1.99593 cumulative IPC: 2.21860 (Simulation time: 0 hr 3 min 36 sec) 
Heartbeat CPU  3 instructions:   33000003 cycles:   12679650 heartbeat IPC: 2.33180 cumulative IPC: 2.60260 (Simulation time: 0 hr 3 min 37 sec) 
Heartbeat CPU  2 instructions:   34000001 cycles:   12870888 heartbeat IPC: 3.34810 cumulative IPC: 2.64162 (Simulation time: 0 hr 3 min 40 sec) 
Heartbeat CPU  1 instructions:   30000001 cycles:   13035477 heartbeat IPC: 1.73226 cumulative IPC: 2.30141 (Simulation time: 0 hr 3 min 43 sec) 
Heartbeat CPU  3 instructions:   34000000 cycles:   13117029 heartbeat IPC: 2.28634 cumulative IPC: 2.59205 (Simulation time: 0 hr 3 min 44 sec) 
Heartbeat CPU  0 instructions:   29000003 cycles:   13120681 heartbeat IPC: 1.99965 cumulative IPC: 2.21025 (Simulation time: 0 hr 3 min 44 sec) 
Heartbeat CPU  2 instructions:   35000001 cycles:   13458851 heartbeat IPC: 1.70079 cumulative IPC: 2.60052 (Simulation time: 0 hr 3 min 48 sec) 
Heartbeat CPU  1 instructions:   31000001 cycles:   13539695 heartbeat IPC: 1.98327 cumulative IPC: 2.28956 (Simulation time: 0 hr 3 min 49 sec) 
Heartbeat CPU  3 instructions:   35000000 cycles:   13575794 heartbeat IPC: 2.17977 cumulative IPC: 2.57812 (Simulation time: 0 hr 3 min 50 sec) 
Heartbeat CPU  0 instructions:   30000001 cycles:   13640129 heartbeat IPC: 1.92512 cumulative IPC: 2.19939 (Simulation time: 0 hr 3 min 51 sec) 
Heartbeat CPU  2 instructions:   36000000 cycles:   13860077 heartbeat IPC: 2.49236 cumulative IPC: 2.59739 (Simulation time: 0 hr 3 min 55 sec) 
Heartbeat CPU  3 instructions:   36000000 cycles:   14046043 heartbeat IPC: 2.12653 cumulative IPC: 2.56300 (Simulation time: 0 hr 3 min 58 sec) 
Heartbeat CPU  1 instructions:   32000000 cycles:   14068926 heartbeat IPC: 1.88953 cumulative IPC: 2.27452 (Simulation time: 0 hr 3 min 58 sec) 
Heartbeat CPU  0 instructions:   31000003 cycles:   14139052 heartbeat IPC: 2.00432 cumulative IPC: 2.19251 (Simulation time: 0 hr 4 min 0 sec) 
Heartbeat CPU  2 instructions:   37000003 cycles:   14159410 heartbeat IPC: 3.34077 cumulative IPC: 2.61310 (Simulation time: 0 hr 4 min 0 sec) 
Heartbeat CPU  3 instructions:   37000002 cycles:   14499991 heartbeat IPC: 2.20290 cumulative IPC: 2.55173 (Simulation time: 0 hr 4 min 5 sec) 
Heartbeat CPU  1 instructions:   33000001 cycles:   14579473 heartbeat IPC: 1.95869 cumulative IPC: 2.26346 (Simulation time: 0 hr 4 min 6 sec) 
Heartbeat CPU  0 instructions:   32000000 cycles:   14645086 heartbeat IPC: 1.97615 cumulative IPC: 2.18503 (Simulation time: 0 hr 4 min 7 sec) 
Heartbeat CPU  2 instructions:   38000000 cycles:   14661480 heartbeat IPC: 1.99175 cumulative IPC: 2.59183 (Simulation time: 0 hr 4 min 8 sec) 
Heartbeat CPU  3 instructions:   38000000 cycles:   14923790 heartbeat IPC: 2.35960 cumulative IPC: 2.54627 (Simulation time: 0 hr 4 min 12 sec) 
Heartbeat CPU  1 instructions:   34000003 cycles:   15047054 heartbeat IPC: 2.13867 cumulative IPC: 2.25958 (Simulation time: 0 hr 4 min 14 sec) 
Heartbeat CPU  0 instructions:   33000002 cycles:   15134153 heartbeat IPC: 2.04471 cumulative IPC: 2.18050 (Simulation time: 0 hr 4 min 16 sec) 
Heartbeat CPU  2 instructions:   39000003 cycles:   15263586 heartbeat IPC: 1.66084 cumulative IPC: 2.55510 (Simulation time: 0 hr 4 min 18 sec) 
Heartbeat CPU  3 instructions:   39000000 cycles:   15359139 heartbeat IPC: 2.29701 cumulative IPC: 2.53920 (Simulation time: 0 hr 4 min 19 sec) 
Heartbeat CPU  1 instructions:   35000001 cycles:   15526998 heartbeat IPC: 2.08357 cumulative IPC: 2.25414 (Simulation time: 0 hr 4 min 22 sec) 
Heartbeat CPU  0 instructions:   34000001 cycles:   15623760 heartbeat IPC: 2.04245 cumulative IPC: 2.17617 (Simulation time: 0 hr 4 min 24 sec) 
Heartbeat CPU  3 instructions:   40000000 cycles:   15810841 heartbeat IPC: 2.21385 cumulative IPC: 2.52991 (Simulation time: 0 hr 4 min 26 sec) 
Heartbeat CPU  2 instructions:   40000000 cycles:   15817824 heartbeat IPC: 1.80427 cumulative IPC: 2.52879 (Simulation time: 0 hr 4 min 27 sec) 
Heartbeat CPU  1 instructions:   36000000 cycles:   16051512 heartbeat IPC: 1.90652 cumulative IPC: 2.24278 (Simulation time: 0 hr 4 min 30 sec) 
Heartbeat CPU  0 instructions:   35000003 cycles:   16109016 heartbeat IPC: 2.06077 cumulative IPC: 2.17270 (Simulation time: 0 hr 4 min 31 sec) 
Heartbeat CPU  3 instructions:   41000000 cycles:   16273342 heartbeat IPC: 2.16216 cumulative IPC: 2.51946 (Simulation time: 0 hr 4 min 34 sec) 
Heartbeat CPU  2 instructions:   41000002 cycles:   16391998 heartbeat IPC: 1.74164 cumulative IPC: 2.50122 (Simulation time: 0 hr 4 min 36 sec) 
Heartbeat CPU  1 instructions:   37000002 cycles:   16541432 heartbeat IPC: 2.04115 cumulative IPC: 2.23681 (Simulation time: 0 hr 4 min 38 sec) 
Heartbeat CPU  0 instructions:   36000000 cycles:   16601480 heartbeat IPC: 2.03060 cumulative IPC: 2.16848 (Simulation time: 0 hr 4 min 39 sec) 
Heartbeat CPU  3 instructions:   42000001 cycles:   16719322 heartbeat IPC: 2.24226 cumulative IPC: 2.51206 (Simulation time: 0 hr 4 min 41 sec) 
Heartbeat CPU  2 instructions:   42000002 cycles:   16950187 heartbeat IPC: 1.79151 cumulative IPC: 2.47785 (Simulation time: 0 hr 4 min 45 sec) 
Heartbeat CPU  0 instructions:   37000000 cycles:   17090604 heartbeat IPC: 2.04447 cumulative IPC: 2.16493 (Simulation time: 0 hr 4 min 47 sec) 
Heartbeat CPU  1 instructions:   38000003 cycles:   17103611 heartbeat IPC: 1.77879 cumulative IPC: 2.22175 (Simulation time: 0 hr 4 min 47 sec) 
Heartbeat CPU  3 instructions:   43000001 cycles:   17159940 heartbeat IPC: 2.26954 cumulative IPC: 2.50584 (Simulation time: 0 hr 4 min 48 sec) 
Heartbeat CPU  2 instructions:   43000001 cycles:   17543077 heartbeat IPC: 1.68665 cumulative IPC: 2.45111 (Simulation time: 0 hr 4 min 54 sec) 
Heartbeat CPU  3 instructions:   44000000 cycles:   17594122 heartbeat IPC: 2.30318 cumulative IPC: 2.50084 (Simulation time: 0 hr 4 min 55 sec) 
Heartbeat CPU  0 instructions:   38000001 cycles:   17602393 heartbeat IPC: 1.95393 cumulative IPC: 2.15880 (Simulation time: 0 hr 4 min 55 sec) 
Heartbeat CPU  1 instructions:   39000000 cycles:   17629953 heartbeat IPC: 1.89990 cumulative IPC: 2.21214 (Simulation time: 0 hr 4 min 55 sec) 
Heartbeat CPU  2 instructions:   44000000 cycles:   18108395 heartbeat IPC: 1.76891 cumulative IPC: 2.42981 (Simulation time: 0 hr 5 min 2 sec) 
Heartbeat CPU  0 instructions:   39000000 cycles:   18126132 heartbeat IPC: 1.90935 cumulative IPC: 2.15159 (Simulation time: 0 hr 5 min 3 sec) 
Heartbeat CPU  1 instructions:   40000000 cycles:   18136165 heartbeat IPC: 1.97546 cumulative IPC: 2.20554 (Simulation time: 0 hr 5 min 3 sec) 
Heartbeat CPU  3 instructions:   45000002 cycles:   18187557 heartbeat IPC: 1.68511 cumulative IPC: 2.47422 (Simulation time: 0 hr 5 min 4 sec) 
Heartbeat CPU  0 instructions:   40000000 cycles:   18656566 heartbeat IPC: 1.88525 cumulative IPC: 2.14402 (Simulation time: 0 hr 5 min 10 sec) 
Heartbeat CPU  1 instructions:   41000002 cycles:   18674824 heartbeat IPC: 1.85647 cumulative IPC: 2.19547 (Simulation time: 0 hr 5 min 11 sec) 
Heartbeat CPU  2 instructions:   45000002 cycles:   18699126 heartbeat IPC: 1.69282 cumulative IPC: 2.40653 (Simulation time: 0 hr 5 min 11 sec) 
Heartbeat CPU  3 instructions:   46000001 cycles:   18753281 heartbeat IPC: 1.76764 cumulative IPC: 2.45290 (Simulation time: 0 hr 5 min 12 sec) 
Heartbeat CPU  1 instructions:   42000002 cycles:   19212961 heartbeat IPC: 1.85826 cumulative IPC: 2.18602 (Simulation time: 0 hr 5 min 18 sec) 
Heartbeat CPU  3 instructions:   47000000 cycles:   19258312 heartbeat IPC: 1.98007 cumulative IPC: 2.44050 (Simulation time: 0 hr 5 min 19 sec) 
Heartbeat CPU  2 instructions:   46000001 cycles:   19265130 heartbeat IPC: 1.76677 cumulative IPC: 2.38773 (Simulation time: 0 hr 5 min 19 sec) 
Heartbeat CPU  0 instructions:   41000001 cycles:   19381378 heartbeat IPC: 1.37967 cumulative IPC: 2.11543 (Simulation time: 0 hr 5 min 21 sec) 
Heartbeat CPU  2 instructions:   47000003 cycles:   19629340 heartbeat IPC: 2.74567 cumulative IPC: 2.39438 (Simulation time: 0 hr 5 min 25 sec) 
Heartbeat CPU  1 instructions:   43000000 cycles:   19729794 heartbeat IPC: 1.93486 cumulative IPC: 2.17945 (Simulation time: 0 hr 5 min 26 sec) 
Heartbeat CPU  3 instructions:   48000000 cycles:   19739520 heartbeat IPC: 2.07810 cumulative IPC: 2.43167 (Simulation time: 0 hr 5 min 27 sec) 
Heartbeat CPU  0 instructions:   42000003 cycles:   19913343 heartbeat IPC: 1.87983 cumulative IPC: 2.10914 (Simulation time: 0 hr 5 min 30 sec) 
Heartbeat CPU  2 instructions:   48000000 cycles:   19930389 heartbeat IPC: 3.32171 cumulative IPC: 2.40838 (Simulation time: 0 hr 5 min 30 sec) 
Heartbeat CPU  2 instructions:   49000000 cycles:   20227118 heartbeat IPC: 3.37008 cumulative IPC: 2.42249 (Simulation time: 0 hr 5 min 35 sec) 
Heartbeat CPU  1 instructions:   44000000 cycles:   20241580 heartbeat IPC: 1.95394 cumulative IPC: 2.17374 (Simulation time: 0 hr 5 min 35 sec) 
Heartbeat CPU  3 instructions:   49000001 cycles:   20259482 heartbeat IPC: 1.92322 cumulative IPC: 2.41862 (Simulation time: 0 hr 5 min 35 sec) 
Heartbeat CPU  0 instructions:   43000000 cycles:   20463218 heartbeat IPC: 1.81859 cumulative IPC: 2.10133 (Simulation time: 0 hr 5 min 39 sec) 
Heartbeat CPU  2 instructions:   50000000 cycles:   20512134 heartbeat IPC: 3.50857 cumulative IPC: 2.43758 (Simulation time: 0 hr 5 min 40 sec) 
Heartbeat CPU  1 instructions:   45000003 cycles:   20758164 heartbeat IPC: 1.93580 cumulative IPC: 2.16782 (Simulation time: 0 hr 5 min 44 sec) 
Heartbeat CPU  3 instructions:   50000002 cycles:   20779145 heartbeat IPC: 1.92433 cumulative IPC: 2.40626 (Simulation time: 0 hr 5 min 44 sec) 
Heartbeat CPU  2 instructions:   51000002 cycles:   20828846 heartbeat IPC: 3.15745 cumulative IPC: 0.04801 (Simulation time: 0 hr 5 min 45 sec) 
Heartbeat CPU  0 instructions:   44000000 cycles:   20961860 heartbeat IPC: 2.00545 cumulative IPC: 2.09905 (Simulation time: 0 hr 5 min 47 sec) 
Heartbeat CPU  2 instructions:   52000000 cycles:   21101173 heartbeat IPC: 3.67205 cumulative IPC: 0.09478 (Simulation time: 0 hr 5 min 49 sec) 
Heartbeat CPU  3 instructions:   51000000 cycles:   21292220 heartbeat IPC: 1.94903 cumulative IPC: 0.04697 (Simulation time: 0 hr 5 min 52 sec) 
Heartbeat CPU  2 instructions:   53000002 cycles:   21399064 heartbeat IPC: 3.35694 cumulative IPC: 0.14019 (Simulation time: 0 hr 5 min 54 sec) 
Heartbeat CPU  0 instructions:   45000003 cycles:   21446703 heartbeat IPC: 2.06253 cumulative IPC: 2.09822 (Simulation time: 0 hr 5 min 55 sec) 
Heartbeat CPU  1 instructions:   46000002 cycles:   21505623 heartbeat IPC: 1.33786 cumulative IPC: 2.13898 (Simulation time: 0 hr 5 min 56 sec) 
Heartbeat CPU  2 instructions:   54000000 cycles:   21671489 heartbeat IPC: 3.67073 cumulative IPC: 0.18457 (Simulation time: 0 hr 5 min 59 sec) 
Heartbeat CPU  3 instructions:   52000000 cycles:   21761282 heartbeat IPC: 2.13191 cumulative IPC: 0.09191 (Simulation time: 0 hr 6 min 0 sec) 
Heartbeat CPU  0 instructions:   46000002 cycles:   21930233 heartbeat IPC: 2.06812 cumulative IPC: 2.09756 (Simulation time: 0 hr 6 min 3 sec) 
Heartbeat CPU  2 instructions:   55000001 cycles:   21944056 heartbeat IPC: 3.66883 cumulative IPC: 0.22785 (Simulation time: 0 hr 6 min 4 sec) 
Heartbeat CPU  1 instructions:   47000000 cycles:   22014831 heartbeat IPC: 1.96383 cumulative IPC: 2.13492 (Simulation time: 0 hr 6 min 5 sec) 
Heartbeat CPU  3 instructions:   53000001 cycles:   22252836 heartbeat IPC: 2.03437 cumulative IPC: 0.13481 (Simulation time: 0 hr 6 min 9 sec) 
Heartbeat CPU  2 instructions:   56000000 cycles:   22350489 heartbeat IPC: 2.46043 cumulative IPC: 0.26845 (Simulation time: 0 hr 6 min 10 sec) 
Heartbeat CPU  0 instructions:   47000001 cycles:   22389018 heartbeat IPC: 2.17967 cumulative IPC: 2.09924 (Simulation time: 0 hr 6 min 11 sec) 
Heartbeat CPU  1 instructions:   48000000 cycles:   22531685 heartbeat IPC: 1.93478 cumulative IPC: 2.13033 (Simulation time: 0 hr 6 min 14 sec) 
Heartbeat CPU  2 instructions:   57000000 cycles:   22672786 heartbeat IPC: 3.10273 cumulative IPC: 0.30874 (Simulation time: 0 hr 6 min 16 sec) 
Heartbeat CPU  3 instructions:   54000001 cycles:   22755217 heartbeat IPC: 1.99052 cumulative IPC: 0.17578 (Simulation time: 0 hr 6 min 17 sec) 
Heartbeat CPU  0 instructions:   48000000 cycles:   22847284 heartbeat IPC: 2.18214 cumulative IPC: 2.10091 (Simulation time: 0 hr 6 min 19 sec) 
Heartbeat CPU  1 instructions:   49000002 cycles:   23003461 heartbeat IPC: 2.11965 cumulative IPC: 2.13011 (Simulation time: 0 hr 6 min 22 sec) 
Heartbeat CPU  2 instructions:   58000000 cycles:   23077142 heartbeat IPC: 2.47307 cumulative IPC: 0.34666 (Simulation time: 0 hr 6 min 23 sec) 
Heartbeat CPU  3 instructions:   55000003 cycles:   23237313 heartbeat IPC: 2.07428 cumulative IPC: 0.21517 (Simulation time: 0 hr 6 min 26 sec) 
Heartbeat CPU  0 instructions:   49000001 cycles:   23277908 heartbeat IPC: 2.32221 cumulative IPC: 2.10500 (Simulation time: 0 hr 6 min 26 sec) 
Heartbeat CPU  2 instructions:   59000000 cycles:   23531857 heartbeat IPC: 2.19918 cumulative IPC: 0.38246 (Simulation time: 0 hr 6 min 30 sec) 
Heartbeat CPU  1 instructions:   50000001 cycles:   23671565 heartbeat IPC: 1.49677 cumulative IPC: 2.11224 (Simulation time: 0 hr 6 min 32 sec) 
Heartbeat CPU  0 instructions:   50000003 cycles:   23724226 heartbeat IPC: 2.24056 cumulative IPC: 2.10755 (Simulation time: 0 hr 6 min 33 sec) 

Warmup complete CPU  0 instructions:   50000003 cycles:   23724226 (Simulation time: 0 hr 6 min 33 sec) 
Warmup complete CPU  1 instructions:   50079525 cycles:   23724226 (Simulation time: 0 hr 6 min 33 sec) 
Warmup complete CPU  2 instructions:   59425644 cycles:   23724226 (Simulation time: 0 hr 6 min 33 sec) 
Warmup complete CPU  3 instructions:   55707000 cycles:   23724225 (Simulation time: 0 hr 6 min 33 sec) 

Heartbeat CPU  3 instructions:   56000000 cycles:   25254763 heartbeat IPC: 0.49567 cumulative IPC: 0.19144 (Simulation time: 0 hr 6 min 36 sec) 
Heartbeat CPU  1 instructions:   51000002 cycles:   26996134 heartbeat IPC: 0.30079 cumulative IPC: 0.28133 (Simulation time: 0 hr 6 min 39 sec) 
Heartbeat CPU  1 instructions:   52000000 cycles:   27684085 heartbeat IPC: 1.45359 cumulative IPC: 0.48499 (Simulation time: 0 hr 6 min 42 sec) 
Heartbeat CPU  1 instructions:   53000000 cycles:   28337920 heartbeat IPC: 1.52944 cumulative IPC: 0.63300 (Simulation time: 0 hr 6 min 44 sec) 
Heartbeat CPU  2 instructions:   60000000 cycles:   28614742 heartbeat IPC: 0.19674 cumulative IPC: 0.11744 (Simulation time: 0 hr 6 min 45 sec) 
Heartbeat CPU  1 instructions:   54000001 cycles:   28893659 heartbeat IPC: 1.79941 cumulative IPC: 0.75840 (Simulation time: 0 hr 6 min 46 sec) 
Heartbeat CPU  1 instructions:   55000002 cycles:   29437337 heartbeat IPC: 1.83933 cumulative IPC: 0.86126 (Simulation time: 0 hr 6 min 49 sec) 
Heartbeat CPU  3 instructions:   57000003 cycles:   30073626 heartbeat IPC: 0.20752 cumulative IPC: 0.20364 (Simulation time: 0 hr 6 min 50 sec) 
Heartbeat CPU  0 instructions:   51000002 cycles:   30583125 heartbeat IPC: 0.14580 cumulative IPC: 0.14580 (Simulation time: 0 hr 6 min 51 sec) 
Heartbeat CPU  1 instructions:   56000000 cycles:   32776926 heartbeat IPC: 0.29944 cumulative IPC: 0.65400 (Simulation time: 0 hr 6 min 56 sec) 
Heartbeat CPU  3 instructions:   58000003 cycles:   34763792 heartbeat IPC: 0.21321 cumulative IPC: 0.20771 (Simulation time: 0 hr 7 min 0 sec) 
Heartbeat CPU  2 instructions:   61000001 cycles:   34841667 heartbeat IPC: 0.16059 cumulative IPC: 0.14161 (Simulation time: 0 hr 7 min 0 sec) 
Heartbeat CPU  2 instructions:   62000001 cycles:   36420230 heartbeat IPC: 0.63349 cumulative IPC: 0.20277 (Simulation time: 0 hr 7 min 4 sec) 
Heartbeat CPU  1 instructions:   57000002 cycles:   37623845 heartbeat IPC: 0.20632 cumulative IPC: 0.49789 (Simulation time: 0 hr 7 min 7 sec) 
Heartbeat CPU  0 instructions:   52000000 cycles:   37800306 heartbeat IPC: 0.13856 cumulative IPC: 0.14208 (Simulation time: 0 hr 7 min 8 sec) 
Heartbeat CPU  2 instructions:   63000000 cycles:   37849036 heartbeat IPC: 0.69988 cumulative IPC: 0.25306 (Simulation time: 0 hr 7 min 8 sec) 
Heartbeat CPU  2 instructions:   64000000 cycles:   38999396 heartbeat IPC: 0.86929 cumulative IPC: 0.29946 (Simulation time: 0 hr 7 min 11 sec) 
Heartbeat CPU  3 instructions:   59000003 cycles:   39497035 heartbeat IPC: 0.21127 cumulative IPC: 0.20878 (Simulation time: 0 hr 7 min 12 sec) 
Heartbeat CPU  2 instructions:   65000002 cycles:   40296636 heartbeat IPC: 0.77087 cumulative IPC: 0.33636 (Simulation time: 0 hr 7 min 15 sec) 
Heartbeat CPU  1 instructions:   58000000 cycles:   42314663 heartbeat IPC: 0.21318 cumulative IPC: 0.42605 (Simulation time: 0 hr 7 min 19 sec) 
Heartbeat CPU  2 instructions:   66000001 cycles:   43587188 heartbeat IPC: 0.30390 cumulative IPC: 0.33099 (Simulation time: 0 hr 7 min 22 sec) 
Heartbeat CPU  3 instructions:   60000000 cycles:   44157911 heartbeat IPC: 0.21455 cumulative IPC: 0.21009 (Simulation time: 0 hr 7 min 23 sec) 
Heartbeat CPU  0 instructions:   53000000 cycles:   45096838 heartbeat IPC: 0.13705 cumulative IPC: 0.14037 (Simulation time: 0 hr 7 min 25 sec) 
Heartbeat CPU  1 instructions:   59000003 cycles:   47120581 heartbeat IPC: 0.20808 cumulative IPC: 0.38128 (Simulation time: 0 hr 7 min 29 sec) 
Heartbeat CPU  3 instructions:   61000000 cycles:   48745781 heartbeat IPC: 0.21797 cumulative IPC: 0.21154 (Simulation time: 0 hr 7 min 32 sec) 
Heartbeat CPU  2 instructions:   67000002 cycles:   49167800 heartbeat IPC: 0.17919 cumulative IPC: 0.29769 (Simulation time: 0 hr 7 min 33 sec) 
Heartbeat CPU  1 instructions:   60000000 cycles:   51818169 heartbeat IPC: 0.21287 cumulative IPC: 0.35312 (Simulation time: 0 hr 7 min 38 sec) 
Heartbeat CPU  3 instructions:   62000002 cycles:   53369288 heartbeat IPC: 0.21629 cumulative IPC: 0.21228 (Simulation time: 0 hr 7 min 41 sec) 
Heartbeat CPU  0 instructions:   54000000 cycles:   53514599 heartbeat IPC: 0.11880 cumulative IPC: 0.13427 (Simulation time: 0 hr 7 min 41 sec) 
Heartbeat CPU  2 instructions:   68000000 cycles:   54912508 heartbeat IPC: 0.17407 cumulative IPC: 0.27492 (Simulation time: 0 hr 7 min 44 sec) 
Heartbeat CPU  1 instructions:   61000001 cycles:   56044415 heartbeat IPC: 0.23662 cumulative IPC: 0.33788 (Simulation time: 0 hr 7 min 47 sec) 
Heartbeat CPU  1 instructions:   62000001 cycles:   56704853 heartbeat IPC: 1.51415 cumulative IPC: 0.36144 (Simulation time: 0 hr 7 min 49 sec) 
Heartbeat CPU  1 instructions:   63000002 cycles:   57339990 heartbeat IPC: 1.57447 cumulative IPC: 0.38436 (Simulation time: 0 hr 7 min 52 sec) 
Heartbeat CPU  2 instructions:   69000003 cycles:   57974179 heartbeat IPC: 0.32662 cumulative IPC: 0.27954 (Simulation time: 0 hr 7 min 54 sec) 
Heartbeat CPU  3 instructions:   63000000 cycles:   58055019 heartbeat IPC: 0.21341 cumulative IPC: 0.21243 (Simulation time: 0 hr 7 min 55 sec) 
Heartbeat CPU  1 instructions:   64000000 cycles:   58204215 heartbeat IPC: 1.15710 cumulative IPC: 0.40373 (Simulation time: 0 hr 7 min 55 sec) 
Heartbeat CPU  1 instructions:   65000003 cycles:   59143124 heartbeat IPC: 1.06507 cumulative IPC: 0.42126 (Simulation time: 0 hr 7 min 58 sec) 
Heartbeat CPU  2 instructions:   70000003 cycles:   59917117 heartbeat IPC: 0.51468 cumulative IPC: 0.29217 (Simulation time: 0 hr 8 min 1 sec) 
Heartbeat CPU  1 instructions:   66000000 cycles:   61420324 heartbeat IPC: 0.43913 cumulative IPC: 0.42234 (Simulation time: 0 hr 8 min 5 sec) 
Heartbeat CPU  2 instructions:   71000000 cycles:   61783471 heartbeat IPC: 0.53580 cumulative IPC: 0.30411 (Simulation time: 0 hr 8 min 5 sec) 
Heartbeat CPU  0 instructions:   55000003 cycles:   61837420 heartbeat IPC: 0.12015 cumulative IPC: 0.13119 (Simulation time: 0 hr 8 min 6 sec) 
Heartbeat CPU  3 instructions:   64000000 cycles:   62705718 heartbeat IPC: 0.21502 cumulative IPC: 0.21274 (Simulation time: 0 hr 8 min 8 sec) 
Heartbeat CPU  2 instructions:   72000000 cycles:   63524885 heartbeat IPC: 0.57425 cumulative IPC: 0.31593 (Simulation time: 0 hr 8 min 10 sec) 
Heartbeat CPU  2 instructions:   73000003 cycles:   65500964 heartbeat IPC: 0.50605 cumulative IPC: 0.32493 (Simulation time: 0 hr 8 min 14 sec) 
Heartbeat CPU  1 instructions:   67000001 cycles:   66115880 heartbeat IPC: 0.21297 cumulative IPC: 0.39915 (Simulation time: 0 hr 8 min 16 sec) 
Heartbeat CPU  2 instructions:   74000002 cycles:   67068372 heartbeat IPC: 0.63800 cumulative IPC: 0.33625 (Simulation time: 0 hr 8 min 18 sec) 
Heartbeat CPU  3 instructions:   65000000 cycles:   67554331 heartbeat IPC: 0.20624 cumulative IPC: 0.21202 (Simulation time: 0 hr 8 min 20 sec) 
Heartbeat CPU  2 instructions:   75000000 cycles:   68514184 heartbeat IPC: 0.69165 cumulative IPC: 0.34772 (Simulation time: 0 hr 8 min 22 sec) 
Heartbeat CPU  0 instructions:   56000000 cycles:   69358564 heartbeat IPC: 0.13296 cumulative IPC: 0.13148 (Simulation time: 0 hr 8 min 24 sec) 
Heartbeat CPU  2 instructions:   76000000 cycles:   70116414 heartbeat IPC: 0.62413 cumulative IPC: 0.35727 (Simulation time: 0 hr 8 min 27 sec) 
Heartbeat CPU  1 instructions:   68000000 cycles:   71031158 heartbeat IPC: 0.20345 cumulative IPC: 0.37881 (Simulation time: 0 hr 8 min 29 sec) 
Heartbeat CPU  2 instructions:   77000000 cycles:   71728885 heartbeat IPC: 0.62017 cumulative IPC: 0.36610 (Simulation time: 0 hr 8 min 31 sec) 
Heartbeat CPU  3 instructions:   66000001 cycles:   72422719 heartbeat IPC: 0.20541 cumulative IPC: 0.21136 (Simulation time: 0 hr 8 min 33 sec) 
Heartbeat CPU  2 instructions:   78000001 cycles:   73280490 heartbeat IPC: 0.64449 cumulative IPC: 0.37481 (Simulation time: 0 hr 8 min 35 sec) 
Heartbeat CPU  0 instructions:   57000002 cycles:   74082799 heartbeat IPC: 0.21167 cumulative IPC: 0.13900 (Simulation time: 0 hr 8 min 38 sec) 
Heartbeat CPU  2 instructions:   79000000 cycles:   75243142 heartbeat IPC: 0.50951 cumulative IPC: 0.37995 (Simulation time: 0 hr 8 min 41 sec) 
Heartbeat CPU  1 instructions:   69000000 cycles:   75929435 heartbeat IPC: 0.20415 cumulative IPC: 0.36243 (Simulation time: 0 hr 8 min 43 sec) 
Heartbeat CPU  3 instructions:   67000002 cycles:   77039395 heartbeat IPC: 0.21661 cumulative IPC: 0.21182 (Simulation time: 0 hr 8 min 46 sec) 
Heartbeat CPU  2 instructions:   80000000 cycles:   77144566 heartbeat IPC: 0.52592 cumulative IPC: 0.38514 (Simulation time: 0 hr 8 min 46 sec) 
Heartbeat CPU  0 instructions:   58000001 cycles:   78716339 heartbeat IPC: 0.21582 cumulative IPC: 0.14548 (Simulation time: 0 hr 8 min 50 sec) 
Heartbeat CPU  2 instructions:   81000000 cycles:   78958026 heartbeat IPC: 0.55143 cumulative IPC: 0.39060 (Simulation time: 0 hr 8 min 51 sec) 
Heartbeat CPU  1 instructions:   70000000 cycles:   80649845 heartbeat IPC: 0.21185 cumulative IPC: 0.34994 (Simulation time: 0 hr 8 min 55 sec) 
Heartbeat CPU  2 instructions:   82000003 cycles:   80767080 heartbeat IPC: 0.55278 cumulative IPC: 0.39574 (Simulation time: 0 hr 8 min 56 sec) 
Heartbeat CPU  3 instructions:   68000000 cycles:   81992119 heartbeat IPC: 0.20191 cumulative IPC: 0.21097 (Simulation time: 0 hr 8 min 59 sec) 
Heartbeat CPU  2 instructions:   83000000 cycles:   82634264 heartbeat IPC: 0.53556 cumulative IPC: 0.40018 (Simulation time: 0 hr 9 min 1 sec) 
Heartbeat CPU  0 instructions:   59000003 cycles:   83273731 heartbeat IPC: 0.21942 cumulative IPC: 0.15113 (Simulation time: 0 hr 9 min 2 sec) 
Heartbeat CPU  2 instructions:   84000000 cycles:   84514075 heartbeat IPC: 0.53197 cumulative IPC: 0.40425 (Simulation time: 0 hr 9 min 6 sec) 
Heartbeat CPU  1 instructions:   71000003 cycles:   85226405 heartbeat IPC: 0.21851 cumulative IPC: 0.34016 (Simulation time: 0 hr 9 min 7 sec) 
Heartbeat CPU  2 instructions:   85000001 cycles:   86528838 heartbeat IPC: 0.49634 cumulative IPC: 0.40721 (Simulation time: 0 hr 9 min 11 sec) 
Heartbeat CPU  3 instructions:   69000000 cycles:   86812848 heartbeat IPC: 0.20744 cumulative IPC: 0.21070 (Simulation time: 0 hr 9 min 12 sec) 
Heartbeat CPU  0 instructions:   60000000 cycles:   87895741 heartbeat IPC: 0.21636 cumulative IPC: 0.15583 (Simulation time: 0 hr 9 min 14 sec) 
Heartbeat CPU  2 instructions:   86000002 cycles:   88327023 heartbeat IPC: 0.55612 cumulative IPC: 0.41135 (Simulation time: 0 hr 9 min 16 sec) 
Heartbeat CPU  2 instructions:   87000002 cycles:   89774194 heartbeat IPC: 0.69100 cumulative IPC: 0.41748 (Simulation time: 0 hr 9 min 20 sec) 
Heartbeat CPU  1 instructions:   72000000 cycles:   89954445 heartbeat IPC: 0.21150 cumulative IPC: 0.33097 (Simulation time: 0 hr 9 min 20 sec) 
Heartbeat CPU  2 instructions:   88000000 cycles:   90977734 heartbeat IPC: 0.83088 cumulative IPC: 0.42488 (Simulation time: 0 hr 9 min 23 sec) 
Heartbeat CPU  3 instructions:   70000003 cycles:   91460081 heartbeat IPC: 0.21518 cumulative IPC: 0.21101 (Simulation time: 0 hr 9 min 25 sec) 
Heartbeat CPU  2 instructions:   89000000 cycles:   91938746 heartbeat IPC: 1.04057 cumulative IPC: 0.43355 (Simulation time: 0 hr 9 min 26 sec) 
Heartbeat CPU  0 instructions:   61000001 cycles:   92596566 heartbeat IPC: 0.21273 cumulative IPC: 0.15972 (Simulation time: 0 hr 9 min 28 sec) 
Heartbeat CPU  2 instructions:   90000003 cycles:   93591850 heartbeat IPC: 0.60492 cumulative IPC: 0.43760 (Simulation time: 0 hr 9 min 31 sec) 
Heartbeat CPU  1 instructions:   73000002 cycles:   94636002 heartbeat IPC: 0.21360 cumulative IPC: 0.32323 (Simulation time: 0 hr 9 min 34 sec) 
Heartbeat CPU  2 instructions:   91000001 cycles:   95398040 heartbeat IPC: 0.55365 cumulative IPC: 0.44053 (Simulation time: 0 hr 9 min 36 sec) 
Heartbeat CPU  3 instructions:   71000001 cycles:   96078785 heartbeat IPC: 0.21651 cumulative IPC: 0.21136 (Simulation time: 0 hr 9 min 37 sec) 
Heartbeat CPU  1 instructions:   74000000 cycles:   96962454 heartbeat IPC: 0.42984 cumulative IPC: 0.32661 (Simulation time: 0 hr 9 min 40 sec) 
Heartbeat CPU  0 instructions:   62000001 cycles:   97423371 heartbeat IPC: 0.20718 cumulative IPC: 0.16282 (Simulation time: 0 hr 9 min 41 sec) 
Heartbeat CPU  1 instructions:   75000001 cycles:   97723596 heartbeat IPC: 1.31382 cumulative IPC: 0.33677 (Simulation time: 0 hr 9 min 42 sec) 
Heartbeat CPU  1 instructions:   76000000 cycles:   98623863 heartbeat IPC: 1.11078 cumulative IPC: 0.34607 (Simulation time: 0 hr 9 min 45 sec) 
Heartbeat CPU  1 instructions:   77000003 cycles:   99285106 heartbeat IPC: 1.51231 cumulative IPC: 0.35628 (Simulation time: 0 hr 9 min 48 sec) 
Heartbeat CPU  1 instructions:   78000003 cycles:   99994587 heartbeat IPC: 1.40948 cumulative IPC: 0.36607 (Simulation time: 0 hr 9 min 51 sec) 
Heartbeat CPU  2 instructions:   92000000 cycles:  100543839 heartbeat IPC: 0.19433 cumulative IPC: 0.42404 (Simulation time: 0 hr 9 min 52 sec) 
Heartbeat CPU  3 instructions:   72000000 cycles:  100651721 heartbeat IPC: 0.21868 cumulative IPC: 0.21180 (Simulation time: 0 hr 9 min 53 sec) 
Heartbeat CPU  0 instructions:   63000003 cycles:  102048779 heartbeat IPC: 0.21620 cumulative IPC: 0.16598 (Simulation time: 0 hr 9 min 56 sec) 
Heartbeat CPU  1 instructions:   79000000 cycles:  103163919 heartbeat IPC: 0.31552 cumulative IPC: 0.36406 (Simulation time: 0 hr 9 min 58 sec) 
Heartbeat CPU  3 instructions:   73000003 cycles:  105277248 heartbeat IPC: 0.21619 cumulative IPC: 0.21205 (Simulation time: 0 hr 10 min 3 sec) 
Heartbeat CPU  2 instructions:   93000000 cycles:  106189834 heartbeat IPC: 0.17712 cumulative IPC: 0.40713 (Simulation time: 0 hr 10 min 5 sec) 
Heartbeat CPU  0 instructions:   64000000 cycles:  106342818 heartbeat IPC: 0.23288 cumulative IPC: 0.16945 (Simulation time: 0 hr 10 min 6 sec) 
Heartbeat CPU  1 instructions:   80000000 cycles:  107839791 heartbeat IPC: 0.21386 cumulative IPC: 0.35571 (Simulation time: 0 hr 10 min 9 sec) 
Heartbeat CPU  3 instructions:   74000002 cycles:  109860374 heartbeat IPC: 0.21819 cumulative IPC: 0.21237 (Simulation time: 0 hr 10 min 14 sec) 
Heartbeat CPU  0 instructions:   65000001 cycles:  110503931 heartbeat IPC: 0.24032 cumulative IPC: 0.17285 (Simulation time: 0 hr 10 min 15 sec) 
Heartbeat CPU  2 instructions:   94000000 cycles:  111909690 heartbeat IPC: 0.17483 cumulative IPC: 0.39206 (Simulation time: 0 hr 10 min 18 sec) 
Heartbeat CPU  1 instructions:   81000003 cycles:  112466767 heartbeat IPC: 0.21612 cumulative IPC: 0.34843 (Simulation time: 0 hr 10 min 20 sec) 
Heartbeat CPU  3 instructions:   75000000 cycles:  114456954 heartbeat IPC: 0.21755 cumulative IPC: 0.21264 (Simulation time: 0 hr 10 min 24 sec) 
Heartbeat CPU  0 instructions:   66000000 cycles:  115290184 heartbeat IPC: 0.20893 cumulative IPC: 0.17474 (Simulation time: 0 hr 10 min 26 sec) 
Heartbeat CPU  1 instructions:   82000003 cycles:  117119005 heartbeat IPC: 0.21495 cumulative IPC: 0.34178 (Simulation time: 0 hr 10 min 30 sec) 
Heartbeat CPU  2 instructions:   95000003 cycles:  117717081 heartbeat IPC: 0.17219 cumulative IPC: 0.37848 (Simulation time: 0 hr 10 min 32 sec) 
Heartbeat CPU  3 instructions:   76000000 cycles:  119123473 heartbeat IPC: 0.21429 cumulative IPC: 0.21272 (Simulation time: 0 hr 10 min 35 sec) 
Heartbeat CPU  0 instructions:   67000001 cycles:  119262473 heartbeat IPC: 0.25174 cumulative IPC: 0.17794 (Simulation time: 0 hr 10 min 35 sec) 
Heartbeat CPU  1 instructions:   83000002 cycles:  121751413 heartbeat IPC: 0.21587 cumulative IPC: 0.33583 (Simulation time: 0 hr 10 min 41 sec) 
Heartbeat CPU  0 instructions:   68000000 cycles:  123144671 heartbeat IPC: 0.25759 cumulative IPC: 0.18105 (Simulation time: 0 hr 10 min 45 sec) 
Heartbeat CPU  2 instructions:   96000000 cycles:  123507180 heartbeat IPC: 0.17271 cumulative IPC: 0.36654 (Simulation time: 0 hr 10 min 46 sec) 
Heartbeat CPU  3 instructions:   77000000 cycles:  123839444 heartbeat IPC: 0.21205 cumulative IPC: 0.21268 (Simulation time: 0 hr 10 min 46 sec) 
Heartbeat CPU  1 instructions:   84000000 cycles:  126293163 heartbeat IPC: 0.22018 cumulative IPC: 0.33071 (Simulation time: 0 hr 10 min 52 sec) 
Heartbeat CPU  0 instructions:   69000003 cycles:  127715126 heartbeat IPC: 0.21880 cumulative IPC: 0.18271 (Simulation time: 0 hr 10 min 55 sec) 
Heartbeat CPU  3 instructions:   78000000 cycles:  128409488 heartbeat IPC: 0.21882 cumulative IPC: 0.21295 (Simulation time: 0 hr 10 min 57 sec) 
Heartbeat CPU  2 instructions:   97000000 cycles:  129335642 heartbeat IPC: 0.17157 cumulative IPC: 0.35578 (Simulation time: 0 hr 10 min 59 sec) 
Heartbeat CPU  1 instructions:   85000003 cycles:  131040171 heartbeat IPC: 0.21066 cumulative IPC: 0.32540 (Simulation time: 0 hr 11 min 3 sec) 
Heartbeat CPU  2 instructions:   98000000 cycles:  132014109 heartbeat IPC: 0.37335 cumulative IPC: 0.35621 (Simulation time: 0 hr 11 min 5 sec) 
Heartbeat CPU  0 instructions:   70000003 cycles:  132471930 heartbeat IPC: 0.21023 cumulative IPC: 0.18391 (Simulation time: 0 hr 11 min 7 sec) 
Heartbeat CPU  3 instructions:   79000003 cycles:  132925698 heartbeat IPC: 0.22143 cumulative IPC: 0.21330 (Simulation time: 0 hr 11 min 8 sec) 
Heartbeat CPU  2 instructions:   99000002 cycles:  133420793 heartbeat IPC: 0.71089 cumulative IPC: 0.36076 (Simulation time: 0 hr 11 min 9 sec) 
*** Reached end of trace for Core: 2 Repeating trace: /data3/STREAMING/traces/streaming_phase0_core2.trace.xz
Heartbeat CPU  2 instructions:  100000000 cycles:  134962364 heartbeat IPC: 0.64869 cumulative IPC: 0.36475 (Simulation time: 0 hr 11 min 14 sec) 
Heartbeat CPU  1 instructions:   86000000 cycles:  135418294 heartbeat IPC: 0.22841 cumulative IPC: 0.32160 (Simulation time: 0 hr 11 min 16 sec) 
Heartbeat CPU  2 instructions:  101000000 cycles:  135650398 heartbeat IPC: 1.45342 cumulative IPC: 0.37144 (Simulation time: 0 hr 11 min 17 sec) 
Heartbeat CPU  1 instructions:   87000000 cycles:  136019217 heartbeat IPC: 1.66411 cumulative IPC: 0.32878 (Simulation time: 0 hr 11 min 19 sec) 
Heartbeat CPU  2 instructions:  102000003 cycles:  136349114 heartbeat IPC: 1.43120 cumulative IPC: 0.37802 (Simulation time: 0 hr 11 min 21 sec) 
Heartbeat CPU  1 instructions:   88000000 cycles:  136572499 heartbeat IPC: 1.80740 cumulative IPC: 0.33603 (Simulation time: 0 hr 11 min 23 sec) 
Heartbeat CPU  2 instructions:  103000001 cycles:  136970811 heartbeat IPC: 1.60850 cumulative IPC: 0.38477 (Simulation time: 0 hr 11 min 25 sec) 
Heartbeat CPU  1 instructions:   89000000 cycles:  137141037 heartbeat IPC: 1.75890 cumulative IPC: 0.34316 (Simulation time: 0 hr 11 min 26 sec) 
Heartbeat CPU  0 instructions:   71000002 cycles:  137215493 heartbeat IPC: 0.21081 cumulative IPC: 0.18504 (Simulation time: 0 hr 11 min 27 sec) 
Heartbeat CPU  3 instructions:   80000000 cycles:  137439119 heartbeat IPC: 0.22156 cumulative IPC: 0.21363 (Simulation time: 0 hr 11 min 28 sec) 
Heartbeat CPU  2 instructions:  104000000 cycles:  137511488 heartbeat IPC: 1.84953 cumulative IPC: 0.39173 (Simulation time: 0 hr 11 min 29 sec) 
Heartbeat CPU  2 instructions:  105000002 cycles:  138126753 heartbeat IPC: 1.62532 cumulative IPC: 0.39837 (Simulation time: 0 hr 11 min 31 sec) 
Heartbeat CPU  2 instructions:  106000001 cycles:  138664862 heartbeat IPC: 1.85836 cumulative IPC: 0.40520 (Simulation time: 0 hr 11 min 34 sec) 
Heartbeat CPU  2 instructions:  107000001 cycles:  139251631 heartbeat IPC: 1.70425 cumulative IPC: 0.41180 (Simulation time: 0 hr 11 min 36 sec) 
Heartbeat CPU  1 instructions:   90000003 cycles:  139575727 heartbeat IPC: 0.41073 cumulative IPC: 0.34458 (Simulation time: 0 hr 11 min 38 sec) 
Heartbeat CPU  2 instructions:  108000000 cycles:  139898027 heartbeat IPC: 1.54704 cumulative IPC: 0.41812 (Simulation time: 0 hr 11 min 39 sec) 
Heartbeat CPU  2 instructions:  109000001 cycles:  140678412 heartbeat IPC: 1.28142 cumulative IPC: 0.42388 (Simulation time: 0 hr 11 min 42 sec) 
Heartbeat CPU  2 instructions:  110000003 cycles:  141823076 heartbeat IPC: 0.87362 cumulative IPC: 0.42824 (Simulation time: 0 hr 11 min 45 sec) 
Heartbeat CPU  0 instructions:   72000000 cycles:  141895724 heartbeat IPC: 0.21366 cumulative IPC: 0.18617 (Simulation time: 0 hr 11 min 45 sec) 
Heartbeat CPU  3 instructions:   81000002 cycles:  141923764 heartbeat IPC: 0.22298 cumulative IPC: 0.21399 (Simulation time: 0 hr 11 min 45 sec) 
Heartbeat CPU  2 instructions:  111000002 cycles:  143303129 heartbeat IPC: 0.67565 cumulative IPC: 0.43130 (Simulation time: 0 hr 11 min 49 sec) 
Heartbeat CPU  1 instructions:   91000003 cycles:  144152151 heartbeat IPC: 0.21851 cumulative IPC: 0.33979 (Simulation time: 0 hr 11 min 52 sec) 
Heartbeat CPU  2 instructions:  112000000 cycles:  145133638 heartbeat IPC: 0.54630 cumulative IPC: 0.43303 (Simulation time: 0 hr 11 min 55 sec) 
Heartbeat CPU  0 instructions:   73000001 cycles:  145694266 heartbeat IPC: 0.26326 cumulative IPC: 0.18857 (Simulation time: 0 hr 11 min 56 sec) 
Heartbeat CPU  2 instructions:  113000001 cycles:  146360725 heartbeat IPC: 0.81494 cumulative IPC: 0.43685 (Simulation time: 0 hr 11 min 58 sec) 
Heartbeat CPU  3 instructions:   82000002 cycles:  146426670 heartbeat IPC: 0.22208 cumulative IPC: 0.21428 (Simulation time: 0 hr 11 min 58 sec) 
Heartbeat CPU  2 instructions:  114000001 cycles:  147736942 heartbeat IPC: 0.72663 cumulative IPC: 0.44007 (Simulation time: 0 hr 12 min 2 sec) 
Heartbeat CPU  1 instructions:   92000000 cycles:  148738002 heartbeat IPC: 0.21806 cumulative IPC: 0.33533 (Simulation time: 0 hr 12 min 5 sec) 
Heartbeat CPU  2 instructions:  115000003 cycles:  149163858 heartbeat IPC: 0.70081 cumulative IPC: 0.44304 (Simulation time: 0 hr 12 min 6 sec) 
Heartbeat CPU  0 instructions:   74000002 cycles:  150347289 heartbeat IPC: 0.21491 cumulative IPC: 0.18954 (Simulation time: 0 hr 12 min 10 sec) 
Heartbeat CPU  2 instructions:  116000000 cycles:  150635417 heartbeat IPC: 0.67955 cumulative IPC: 0.44578 (Simulation time: 0 hr 12 min 11 sec) 
Heartbeat CPU  3 instructions:   83000002 cycles:  151044763 heartbeat IPC: 0.21654 cumulative IPC: 0.21436 (Simulation time: 0 hr 12 min 12 sec) 
Heartbeat CPU  2 instructions:  117000002 cycles:  151981151 heartbeat IPC: 0.74309 cumulative IPC: 0.44890 (Simulation time: 0 hr 12 min 15 sec) 
Heartbeat CPU  1 instructions:   93000003 cycles:  153314985 heartbeat IPC: 0.21849 cumulative IPC: 0.33120 (Simulation time: 0 hr 12 min 18 sec) 
Heartbeat CPU  2 instructions:  118000003 cycles:  153332061 heartbeat IPC: 0.74024 cumulative IPC: 0.45194 (Simulation time: 0 hr 12 min 18 sec) 
Heartbeat CPU  2 instructions:  119000000 cycles:  154791510 heartbeat IPC: 0.68519 cumulative IPC: 0.45453 (Simulation time: 0 hr 12 min 23 sec) 
Heartbeat CPU  0 instructions:   75000000 cycles:  154934535 heartbeat IPC: 0.21800 cumulative IPC: 0.19053 (Simulation time: 0 hr 12 min 23 sec) 
Heartbeat CPU  3 instructions:   84000000 cycles:  155640090 heartbeat IPC: 0.21761 cumulative IPC: 0.21448 (Simulation time: 0 hr 12 min 25 sec) 
Heartbeat CPU  2 instructions:  120000000 cycles:  156686386 heartbeat IPC: 0.52774 cumulative IPC: 0.45558 (Simulation time: 0 hr 12 min 28 sec) 
Heartbeat CPU  2 instructions:  121000002 cycles:  158475505 heartbeat IPC: 0.55894 cumulative IPC: 0.45695 (Simulation time: 0 hr 12 min 32 sec) 
Heartbeat CPU  1 instructions:   94000003 cycles:  158642056 heartbeat IPC: 0.18772 cumulative IPC: 0.32554 (Simulation time: 0 hr 12 min 33 sec) 
Heartbeat CPU  0 instructions:   76000000 cycles:  159591479 heartbeat IPC: 0.21473 cumulative IPC: 0.19136 (Simulation time: 0 hr 12 min 35 sec) 
Heartbeat CPU  3 instructions:   85000001 cycles:  160230846 heartbeat IPC: 0.21783 cumulative IPC: 0.21459 (Simulation time: 0 hr 12 min 37 sec) 
Heartbeat CPU  2 instructions:  122000000 cycles:  160438979 heartbeat IPC: 0.50930 cumulative IPC: 0.45770 (Simulation time: 0 hr 12 min 37 sec) 
Heartbeat CPU  2 instructions:  123000003 cycles:  162374279 heartbeat IPC: 0.51672 cumulative IPC: 0.45852 (Simulation time: 0 hr 12 min 42 sec) 
Heartbeat CPU  0 instructions:   77000003 cycles:  164151528 heartbeat IPC: 0.21930 cumulative IPC: 0.19227 (Simulation time: 0 hr 12 min 45 sec) 
Heartbeat CPU  3 instructions:   86000001 cycles:  164838525 heartbeat IPC: 0.21703 cumulative IPC: 0.21467 (Simulation time: 0 hr 12 min 47 sec) 
Heartbeat CPU  1 instructions:   95000000 cycles:  167089278 heartbeat IPC: 0.11838 cumulative IPC: 0.31333 (Simulation time: 0 hr 12 min 51 sec) 
Heartbeat CPU  2 instructions:  124000000 cycles:  168328261 heartbeat IPC: 0.16795 cumulative IPC: 0.44656 (Simulation time: 0 hr 12 min 54 sec) 
Heartbeat CPU  0 instructions:   78000001 cycles:  168758534 heartbeat IPC: 0.21706 cumulative IPC: 0.19306 (Simulation time: 0 hr 12 min 55 sec) 
Heartbeat CPU  3 instructions:   87000000 cycles:  169506023 heartbeat IPC: 0.21425 cumulative IPC: 0.21466 (Simulation time: 0 hr 12 min 56 sec) 
Heartbeat CPU  3 instructions:   88000000 cycles:  172701132 heartbeat IPC: 0.31298 cumulative IPC: 0.21677 (Simulation time: 0 hr 13 min 3 sec) 
Heartbeat CPU  3 instructions:   89000003 cycles:  173280879 heartbeat IPC: 1.72490 cumulative IPC: 0.22261 (Simulation time: 0 hr 13 min 5 sec) 
Heartbeat CPU  0 instructions:   79000001 cycles:  173452292 heartbeat IPC: 0.21305 cumulative IPC: 0.19368 (Simulation time: 0 hr 13 min 6 sec) 
Heartbeat CPU  2 instructions:  125000003 cycles:  174121588 heartbeat IPC: 0.17261 cumulative IPC: 0.43601 (Simulation time: 0 hr 13 min 7 sec) 
Heartbeat CPU  3 instructions:   90000000 cycles:  175378088 heartbeat IPC: 0.47682 cumulative IPC: 0.22613 (Simulation time: 0 hr 13 min 10 sec) 
Heartbeat CPU  1 instructions:   96000000 cycles:  175519996 heartbeat IPC: 0.11861 cumulative IPC: 0.30251 (Simulation time: 0 hr 13 min 10 sec) 
Heartbeat CPU  0 instructions:   80000000 cycles:  178081372 heartbeat IPC: 0.21603 cumulative IPC: 0.19435 (Simulation time: 0 hr 13 min 15 sec) 
Heartbeat CPU  2 instructions:  126000001 cycles:  179800795 heartbeat IPC: 0.17608 cumulative IPC: 0.42655 (Simulation time: 0 hr 13 min 19 sec) 
Heartbeat CPU  3 instructions:   91000002 cycles:  179951129 heartbeat IPC: 0.21867 cumulative IPC: 0.22591 (Simulation time: 0 hr 13 min 19 sec) 
Heartbeat CPU  1 instructions:   97000001 cycles:  182630497 heartbeat IPC: 0.14064 cumulative IPC: 0.29527 (Simulation time: 0 hr 13 min 25 sec) 
Heartbeat CPU  0 instructions:   81000001 cycles:  182785865 heartbeat IPC: 0.21256 cumulative IPC: 0.19489 (Simulation time: 0 hr 13 min 25 sec) 
Heartbeat CPU  3 instructions:   92000000 cycles:  184548184 heartbeat IPC: 0.21753 cumulative IPC: 0.22567 (Simulation time: 0 hr 13 min 29 sec) 
Heartbeat CPU  2 instructions:  127000003 cycles:  185532334 heartbeat IPC: 0.17447 cumulative IPC: 0.41762 (Simulation time: 0 hr 13 min 31 sec) 
Heartbeat CPU  0 instructions:   82000001 cycles:  187397643 heartbeat IPC: 0.21684 cumulative IPC: 0.19551 (Simulation time: 0 hr 13 min 35 sec) 
Heartbeat CPU  3 instructions:   93000002 cycles:  189134587 heartbeat IPC: 0.21804 cumulative IPC: 0.22546 (Simulation time: 0 hr 13 min 39 sec) 
Heartbeat CPU  1 instructions:   98000001 cycles:  189666038 heartbeat IPC: 0.14214 cumulative IPC: 0.28878 (Simulation time: 0 hr 13 min 40 sec) 
Heartbeat CPU  2 instructions:  128000000 cycles:  191266518 heartbeat IPC: 0.17439 cumulative IPC: 0.40930 (Simulation time: 0 hr 13 min 43 sec) 
Heartbeat CPU  0 instructions:   83000003 cycles:  192009060 heartbeat IPC: 0.21685 cumulative IPC: 0.19610 (Simulation time: 0 hr 13 min 44 sec) 
Heartbeat CPU  3 instructions:   94000000 cycles:  193937199 heartbeat IPC: 0.20822 cumulative IPC: 0.22497 (Simulation time: 0 hr 13 min 48 sec) 
Heartbeat CPU  0 instructions:   84000000 cycles:  196615113 heartbeat IPC: 0.21710 cumulative IPC: 0.19666 (Simulation time: 0 hr 13 min 53 sec) 
Heartbeat CPU  2 instructions:  129000002 cycles:  197087953 heartbeat IPC: 0.17178 cumulative IPC: 0.40132 (Simulation time: 0 hr 13 min 54 sec) 
Heartbeat CPU  1 instructions:   99000003 cycles:  197573199 heartbeat IPC: 0.12647 cumulative IPC: 0.28140 (Simulation time: 0 hr 13 min 55 sec) 
Heartbeat CPU  3 instructions:   95000002 cycles:  198757960 heartbeat IPC: 0.20744 cumulative IPC: 0.22449 (Simulation time: 0 hr 13 min 58 sec) 
Heartbeat CPU  0 instructions:   85000001 cycles:  201274844 heartbeat IPC: 0.21460 cumulative IPC: 0.19713 (Simulation time: 0 hr 14 min 3 sec) 
Heartbeat CPU  2 instructions:  130000002 cycles:  202812787 heartbeat IPC: 0.17468 cumulative IPC: 0.39408 (Simulation time: 0 hr 14 min 6 sec) 
Heartbeat CPU  3 instructions:   96000000 cycles:  203554499 heartbeat IPC: 0.20848 cumulative IPC: 0.22406 (Simulation time: 0 hr 14 min 7 sec) 
*** Reached end of trace for Core: 1 Repeating trace: /data3/STREAMING/traces/streaming_phase0_core1.trace.xz
Heartbeat CPU  1 instructions:  100000000 cycles:  205182570 heartbeat IPC: 0.13142 cumulative IPC: 0.27511 (Simulation time: 0 hr 14 min 10 sec) 
Heartbeat CPU  0 instructions:   86000001 cycles:  205947619 heartbeat IPC: 0.21401 cumulative IPC: 0.19756 (Simulation time: 0 hr 14 min 13 sec) 
Heartbeat CPU  1 instructions:  101000002 cycles:  206246967 heartbeat IPC: 0.93950 cumulative IPC: 0.27898 (Simulation time: 0 hr 14 min 14 sec) 
Heartbeat CPU  1 instructions:  102000002 cycles:  207072084 heartbeat IPC: 1.21195 cumulative IPC: 0.28318 (Simulation time: 0 hr 14 min 16 sec) 
Heartbeat CPU  1 instructions:  103000000 cycles:  207696404 heartbeat IPC: 1.60174 cumulative IPC: 0.28765 (Simulation time: 0 hr 14 min 19 sec) 
Heartbeat CPU  1 instructions:  104000000 cycles:  208261733 heartbeat IPC: 1.76888 cumulative IPC: 0.29219 (Simulation time: 0 hr 14 min 21 sec) 
Heartbeat CPU  3 instructions:   97000001 cycles:  208427190 heartbeat IPC: 0.20523 cumulative IPC: 0.22356 (Simulation time: 0 hr 14 min 22 sec) 
Heartbeat CPU  2 instructions:  131000002 cycles:  208558912 heartbeat IPC: 0.17403 cumulative IPC: 0.38723 (Simulation time: 0 hr 14 min 22 sec) 
Heartbeat CPU  1 instructions:  105000002 cycles:  208814137 heartbeat IPC: 1.81027 cumulative IPC: 0.29672 (Simulation time: 0 hr 14 min 24 sec) 
Heartbeat CPU  1 instructions:  106000001 cycles:  209345964 heartbeat IPC: 1.88031 cumulative IPC: 0.30126 (Simulation time: 0 hr 14 min 26 sec) 
Heartbeat CPU  1 instructions:  107000000 cycles:  210009632 heartbeat IPC: 1.50678 cumulative IPC: 0.30556 (Simulation time: 0 hr 14 min 28 sec) 
Heartbeat CPU  0 instructions:   87000003 cycles:  210627706 heartbeat IPC: 0.21367 cumulative IPC: 0.19796 (Simulation time: 0 hr 14 min 31 sec) 
Heartbeat CPU  1 instructions:  108000000 cycles:  210854179 heartbeat IPC: 1.18407 cumulative IPC: 0.30952 (Simulation time: 0 hr 14 min 31 sec) 
Heartbeat CPU  1 instructions:  109000001 cycles:  211538144 heartbeat IPC: 1.46206 cumulative IPC: 0.31372 (Simulation time: 0 hr 14 min 34 sec) 
Heartbeat CPU  3 instructions:   98000002 cycles:  213134181 heartbeat IPC: 0.21245 cumulative IPC: 0.22329 (Simulation time: 0 hr 14 min 38 sec) 
Heartbeat CPU  1 instructions:  110000002 cycles:  213185580 heartbeat IPC: 0.60700 cumulative IPC: 0.31627 (Simulation time: 0 hr 14 min 38 sec) 
Heartbeat CPU  2 instructions:  132000000 cycles:  214162853 heartbeat IPC: 0.17845 cumulative IPC: 0.38109 (Simulation time: 0 hr 14 min 41 sec) 
Heartbeat CPU  0 instructions:   88000000 cycles:  215278849 heartbeat IPC: 0.21500 cumulative IPC: 0.19838 (Simulation time: 0 hr 14 min 43 sec) 
Heartbeat CPU  2 instructions:  133000001 cycles:  216997665 heartbeat IPC: 0.35276 cumulative IPC: 0.38067 (Simulation time: 0 hr 14 min 47 sec) 
Heartbeat CPU  3 instructions:   99000003 cycles:  217727933 heartbeat IPC: 0.21769 cumulative IPC: 0.22316 (Simulation time: 0 hr 14 min 49 sec) 
Heartbeat CPU  1 instructions:  111000003 cycles:  217899169 heartbeat IPC: 0.21215 cumulative IPC: 0.31374 (Simulation time: 0 hr 14 min 50 sec) 
Heartbeat CPU  2 instructions:  134000003 cycles:  218465046 heartbeat IPC: 0.68149 cumulative IPC: 0.38294 (Simulation time: 0 hr 14 min 51 sec) 
Heartbeat CPU  0 instructions:   89000001 cycles:  219845361 heartbeat IPC: 0.21899 cumulative IPC: 0.19886 (Simulation time: 0 hr 14 min 55 sec) 
Heartbeat CPU  2 instructions:  135000001 cycles:  221548297 heartbeat IPC: 0.32433 cumulative IPC: 0.38203 (Simulation time: 0 hr 14 min 59 sec) 
*** Reached end of trace for Core: 3 Repeating trace: /data3/STREAMING/traces/streaming_phase0_core3.trace.xz
Heartbeat CPU  3 instructions:  100000000 cycles:  222542100 heartbeat IPC: 0.20772 cumulative IPC: 0.22278 (Simulation time: 0 hr 15 min 1 sec) 
Heartbeat CPU  1 instructions:  112000000 cycles:  222556400 heartbeat IPC: 0.21472 cumulative IPC: 0.31142 (Simulation time: 0 hr 15 min 1 sec) 
Heartbeat CPU  2 instructions:  136000000 cycles:  223244025 heartbeat IPC: 0.58972 cumulative IPC: 0.38379 (Simulation time: 0 hr 15 min 3 sec) 
Heartbeat CPU  3 instructions:  101000000 cycles:  224150093 heartbeat IPC: 0.62189 cumulative IPC: 0.22598 (Simulation time: 0 hr 15 min 6 sec) 
Heartbeat CPU  0 instructions:   90000002 cycles:  224590075 heartbeat IPC: 0.21076 cumulative IPC: 0.19914 (Simulation time: 0 hr 15 min 9 sec) 
Heartbeat CPU  2 instructions:  137000002 cycles:  224615889 heartbeat IPC: 0.72894 cumulative IPC: 0.38615 (Simulation time: 0 hr 15 min 9 sec) 
Heartbeat CPU  3 instructions:  102000001 cycles:  224834567 heartbeat IPC: 1.46098 cumulative IPC: 0.23019 (Simulation time: 0 hr 15 min 10 sec) 
Heartbeat CPU  3 instructions:  103000000 cycles:  225498543 heartbeat IPC: 1.50608 cumulative IPC: 0.23439 (Simulation time: 0 hr 15 min 12 sec) 
Heartbeat CPU  3 instructions:  104000000 cycles:  226057721 heartbeat IPC: 1.78834 cumulative IPC: 0.23868 (Simulation time: 0 hr 15 min 15 sec) 
Heartbeat CPU  1 instructions:  113000002 cycles:  227195224 heartbeat IPC: 0.21557 cumulative IPC: 0.30924 (Simulation time: 0 hr 15 min 18 sec) 
Heartbeat CPU  2 instructions:  138000000 cycles:  228331653 heartbeat IPC: 0.26912 cumulative IPC: 0.38402 (Simulation time: 0 hr 15 min 20 sec) 
Heartbeat CPU  0 instructions:   91000001 cycles:  229272133 heartbeat IPC: 0.21358 cumulative IPC: 0.19947 (Simulation time: 0 hr 15 min 22 sec) 
Heartbeat CPU  3 instructions:  105000003 cycles:  230845544 heartbeat IPC: 0.20886 cumulative IPC: 0.23799 (Simulation time: 0 hr 15 min 25 sec) 
Heartbeat CPU  1 instructions:  114000000 cycles:  231804543 heartbeat IPC: 0.21695 cumulative IPC: 0.30719 (Simulation time: 0 hr 15 min 27 sec) 
Heartbeat CPU  0 instructions:   92000000 cycles:  233197565 heartbeat IPC: 0.25475 cumulative IPC: 0.20050 (Simulation time: 0 hr 15 min 30 sec) 
Heartbeat CPU  2 instructions:  139000002 cycles:  234092797 heartbeat IPC: 0.17358 cumulative IPC: 0.37826 (Simulation time: 0 hr 15 min 32 sec) 
Heartbeat CPU  1 instructions:  115000000 cycles:  236389927 heartbeat IPC: 0.21808 cumulative IPC: 0.30527 (Simulation time: 0 hr 15 min 37 sec) 
Heartbeat CPU  0 instructions:   93000003 cycles:  237837164 heartbeat IPC: 0.21554 cumulative IPC: 0.20083 (Simulation time: 0 hr 15 min 40 sec) 
Heartbeat CPU  3 instructions:  106000002 cycles:  238476164 heartbeat IPC: 0.13105 cumulative IPC: 0.23419 (Simulation time: 0 hr 15 min 41 sec) 
Heartbeat CPU  2 instructions:  140000000 cycles:  239894161 heartbeat IPC: 0.17237 cumulative IPC: 0.37274 (Simulation time: 0 hr 15 min 44 sec) 
Heartbeat CPU  1 instructions:  116000000 cycles:  240986253 heartbeat IPC: 0.21757 cumulative IPC: 0.30341 (Simulation time: 0 hr 15 min 46 sec) 
Heartbeat CPU  0 instructions:   94000001 cycles:  242737608 heartbeat IPC: 0.20406 cumulative IPC: 0.20090 (Simulation time: 0 hr 15 min 50 sec) 
Heartbeat CPU  3 instructions:  107000000 cycles:  243401839 heartbeat IPC: 0.20302 cumulative IPC: 0.23349 (Simulation time: 0 hr 15 min 52 sec) 
Heartbeat CPU  3 instructions:  108000000 cycles:  244060689 heartbeat IPC: 1.51780 cumulative IPC: 0.23733 (Simulation time: 0 hr 15 min 55 sec) 
Heartbeat CPU  3 instructions:  109000001 cycles:  244612028 heartbeat IPC: 1.81377 cumulative IPC: 0.24127 (Simulation time: 0 hr 15 min 58 sec) 
Heartbeat CPU  3 instructions:  110000001 cycles:  245297256 heartbeat IPC: 1.45937 cumulative IPC: 0.24503 (Simulation time: 0 hr 16 min 1 sec) 
Heartbeat CPU  1 instructions:  117000001 cycles:  245581786 heartbeat IPC: 0.21760 cumulative IPC: 0.30164 (Simulation time: 0 hr 16 min 2 sec) 
Heartbeat CPU  2 instructions:  141000003 cycles:  245673750 heartbeat IPC: 0.17302 cumulative IPC: 0.36754 (Simulation time: 0 hr 16 min 2 sec) 
Heartbeat CPU  3 instructions:  111000002 cycles:  245849549 heartbeat IPC: 1.81063 cumulative IPC: 0.24893 (Simulation time: 0 hr 16 min 3 sec) 
Heartbeat CPU  0 instructions:   95000003 cycles:  247667225 heartbeat IPC: 0.20286 cumulative IPC: 0.20094 (Simulation time: 0 hr 16 min 7 sec) 
Heartbeat CPU  3 instructions:  112000000 cycles:  248984942 heartbeat IPC: 0.31894 cumulative IPC: 0.24990 (Simulation time: 0 hr 16 min 10 sec) 
Heartbeat CPU  3 instructions:  113000002 cycles:  249715208 heartbeat IPC: 1.36937 cumulative IPC: 0.25352 (Simulation time: 0 hr 16 min 13 sec) 
Heartbeat CPU  1 instructions:  118000000 cycles:  250192249 heartbeat IPC: 0.21690 cumulative IPC: 0.29991 (Simulation time: 0 hr 16 min 15 sec) 
Heartbeat CPU  3 instructions:  114000001 cycles:  250339039 heartbeat IPC: 1.60300 cumulative IPC: 0.25723 (Simulation time: 0 hr 16 min 15 sec) 
Heartbeat CPU  3 instructions:  115000001 cycles:  250886867 heartbeat IPC: 1.82539 cumulative IPC: 0.26102 (Simulation time: 0 hr 16 min 18 sec) 
Heartbeat CPU  2 instructions:  142000000 cycles:  251354061 heartbeat IPC: 0.17605 cumulative IPC: 0.36276 (Simulation time: 0 hr 16 min 20 sec) 
Heartbeat CPU  3 instructions:  116000000 cycles:  251438858 heartbeat IPC: 1.81162 cumulative IPC: 0.26477 (Simulation time: 0 hr 16 min 20 sec) 
Heartbeat CPU  3 instructions:  117000002 cycles:  251967580 heartbeat IPC: 1.89136 cumulative IPC: 0.26854 (Simulation time: 0 hr 16 min 22 sec) 
Heartbeat CPU  0 instructions:   96000000 cycles:  252436768 heartbeat IPC: 0.20966 cumulative IPC: 0.20113 (Simulation time: 0 hr 16 min 24 sec) 
Heartbeat CPU  3 instructions:  118000000 cycles:  252557593 heartbeat IPC: 1.69487 cumulative IPC: 0.27222 (Simulation time: 0 hr 16 min 25 sec) 
Heartbeat CPU  3 instructions:  119000000 cycles:  253171585 heartbeat IPC: 1.62869 cumulative IPC: 0.27585 (Simulation time: 0 hr 16 min 27 sec) 
Heartbeat CPU  1 instructions:  119000002 cycles:  254743070 heartbeat IPC: 0.21974 cumulative IPC: 0.29833 (Simulation time: 0 hr 16 min 31 sec) 
Heartbeat CPU  3 instructions:  120000000 cycles:  255270721 heartbeat IPC: 0.47639 cumulative IPC: 0.27767 (Simulation time: 0 hr 16 min 33 sec) 
Heartbeat CPU  2 instructions:  143000001 cycles:  257014267 heartbeat IPC: 0.17667 cumulative IPC: 0.35824 (Simulation time: 0 hr 16 min 37 sec) 
Heartbeat CPU  0 instructions:   97000003 cycles:  257109997 heartbeat IPC: 0.21399 cumulative IPC: 0.20138 (Simulation time: 0 hr 16 min 37 sec) 
Heartbeat CPU  1 instructions:  120000000 cycles:  259361018 heartbeat IPC: 0.21655 cumulative IPC: 0.29673 (Simulation time: 0 hr 16 min 42 sec) 
Heartbeat CPU  3 instructions:  121000002 cycles:  260024178 heartbeat IPC: 0.21037 cumulative IPC: 0.27631 (Simulation time: 0 hr 16 min 43 sec) 
Heartbeat CPU  0 instructions:   98000003 cycles:  261892971 heartbeat IPC: 0.20907 cumulative IPC: 0.20154 (Simulation time: 0 hr 16 min 47 sec) 
Heartbeat CPU  2 instructions:  144000000 cycles:  262765583 heartbeat IPC: 0.17387 cumulative IPC: 0.35381 (Simulation time: 0 hr 16 min 49 sec) 
Heartbeat CPU  1 instructions:  121000000 cycles:  263996324 heartbeat IPC: 0.21574 cumulative IPC: 0.29517 (Simulation time: 0 hr 16 min 52 sec) 
Heartbeat CPU  3 instructions:  122000000 cycles:  264708921 heartbeat IPC: 0.21346 cumulative IPC: 0.27509 (Simulation time: 0 hr 16 min 53 sec) 
Heartbeat CPU  0 instructions:   99000000 cycles:  266532160 heartbeat IPC: 0.21555 cumulative IPC: 0.20181 (Simulation time: 0 hr 16 min 57 sec) 
Heartbeat CPU  2 instructions:  145000003 cycles:  268406194 heartbeat IPC: 0.17729 cumulative IPC: 0.34974 (Simulation time: 0 hr 17 min 1 sec) 
Heartbeat CPU  1 instructions:  122000000 cycles:  268558627 heartbeat IPC: 0.21919 cumulative IPC: 0.29375 (Simulation time: 0 hr 17 min 2 sec) 
Heartbeat CPU  3 instructions:  123000002 cycles:  269391542 heartbeat IPC: 0.21356 cumulative IPC: 0.27392 (Simulation time: 0 hr 17 min 4 sec) 
*** Reached end of trace for Core: 0 Repeating trace: /data3/STREAMING/traces/streaming_phase0_core0.trace.xz
Heartbeat CPU  0 instructions:  100000000 cycles:  271019034 heartbeat IPC: 0.22287 cumulative IPC: 0.20219 (Simulation time: 0 hr 17 min 7 sec) 
Heartbeat CPU  0 instructions:  101000002 cycles:  272035503 heartbeat IPC: 0.98380 cumulative IPC: 0.20539 (Simulation time: 0 hr 17 min 10 sec) 
Heartbeat CPU  0 instructions:  102000000 cycles:  272839455 heartbeat IPC: 1.24385 cumulative IPC: 0.20874 (Simulation time: 0 hr 17 min 13 sec) 
Heartbeat CPU  1 instructions:  123000002 cycles:  273163677 heartbeat IPC: 0.21715 cumulative IPC: 0.29234 (Simulation time: 0 hr 17 min 14 sec) 
Heartbeat CPU  0 instructions:  103000001 cycles:  273534640 heartbeat IPC: 1.43847 cumulative IPC: 0.21216 (Simulation time: 0 hr 17 min 16 sec) 
Heartbeat CPU  2 instructions:  146000000 cycles:  274058763 heartbeat IPC: 0.17691 cumulative IPC: 0.34583 (Simulation time: 0 hr 17 min 18 sec) 
Heartbeat CPU  0 instructions:  104000000 cycles:  274076193 heartbeat IPC: 1.84654 cumulative IPC: 0.21570 (Simulation time: 0 hr 17 min 18 sec) 
Heartbeat CPU  0 instructions:  105000002 cycles:  274680443 heartbeat IPC: 1.65495 cumulative IPC: 0.21916 (Simulation time: 0 hr 17 min 20 sec) 
Heartbeat CPU  0 instructions:  106000003 cycles:  275206209 heartbeat IPC: 1.90199 cumulative IPC: 0.22268 (Simulation time: 0 hr 17 min 23 sec) 
Heartbeat CPU  0 instructions:  107000000 cycles:  275753212 heartbeat IPC: 1.82814 cumulative IPC: 0.22616 (Simulation time: 0 hr 17 min 25 sec) 
Heartbeat CPU  2 instructions:  147000001 cycles:  275986442 heartbeat IPC: 0.51876 cumulative IPC: 0.34716 (Simulation time: 0 hr 17 min 26 sec) 
Heartbeat CPU  3 instructions:  124000000 cycles:  276120408 heartbeat IPC: 0.14861 cumulative IPC: 0.27058 (Simulation time: 0 hr 17 min 27 sec) 
Heartbeat CPU  0 instructions:  108000000 cycles:  276415431 heartbeat IPC: 1.51007 cumulative IPC: 0.22953 (Simulation time: 0 hr 17 min 28 sec) 
Heartbeat CPU  2 instructions:  148000000 cycles:  277379006 heartbeat IPC: 0.71810 cumulative IPC: 0.34919 (Simulation time: 0 hr 17 min 31 sec) 
Heartbeat CPU  1 instructions:  124000000 cycles:  277965004 heartbeat IPC: 0.20828 cumulative IPC: 0.29075 (Simulation time: 0 hr 17 min 33 sec) 
Heartbeat CPU  2 instructions:  149000001 cycles:  278789168 heartbeat IPC: 0.70914 cumulative IPC: 0.35118 (Simulation time: 0 hr 17 min 35 sec) 
Heartbeat CPU  0 instructions:  109000003 cycles:  279567861 heartbeat IPC: 0.31722 cumulative IPC: 0.23061 (Simulation time: 0 hr 17 min 37 sec) 
Heartbeat CPU  2 instructions:  150000002 cycles:  279861807 heartbeat IPC: 0.93228 cumulative IPC: 0.35362 (Simulation time: 0 hr 17 min 38 sec) 
[...]
Core_0_L2C_prefetch_late 137447
Core_0_L2C_average_miss_latency 131.10531

Core_0_L2C_rq_access 8104187
Core_0_L2C_rq_forward 0
Core_0_L2C_rq_merged 0
Core_0_L2C_rq_to_cache 8103567
Core_0_L2C_rq_full 0

Core_0_L2C_wq_access 1085863
Core_0_L2C_wq_forward 634
Core_0_L2C_wq_merged 0
Core_0_L2C_wq_to_cache 1085863
Core_0_L2C_wq_full 0

Core_0_L2C_pq_access 14005462
Core_0_L2C_pq_forward 0
Core_0_L2C_pq_merged 24961
Core_0_L2C_pq_to_cache 13980487
Core_0_L2C_pq_full 0

Core_0_L2C_acc_epochs 170034
Core_0_L2C_acc_level_0 36873
Core_0_L2C_acc_level_1 41091
Core_0_L2C_acc_level_2 27935
Core_0_L2C_acc_level_3 15801
Core_0_L2C_acc_level_4 9268
Core_0_L2C_acc_level_5 7838
Core_0_L2C_acc_level_6 8320
Core_0_L2C_acc_level_7 7033
Core_0_L2C_acc_level_8 4058
Core_0_L2C_acc_level_9 11817

Core_0_LLC_total_access 4301502
Core_0_LLC_total_hit 3138951
Core_0_LLC_total_miss 1162551
Core_0_LLC_loads 684816
Core_0_LLC_load_hit 562934
Core_0_LLC_load_miss 121882
Core_0_LLC_RFOs 333110
Core_0_LLC_RFO_hit 170304
Core_0_LLC_RFO_miss 162806
Core_0_LLC_prefetches 2705714
Core_0_LLC_prefetch_hit 1870908
Core_0_LLC_prefetch_miss 834806
Core_0_LLC_writebacks 577862
Core_0_LLC_writeback_hit 534805
Core_0_LLC_writeback_miss 43057
Core_0_LLC_prefetch_requested 0
Core_0_LLC_prefetch_dropped 0
Core_0_LLC_prefetch_issued 0
Core_0_LLC_prefetch_filled 6614615
Core_0_LLC_prefetch_useful 134855
Core_0_LLC_prefetch_useless 6401797
Core_0_LLC_prefetch_late 0
Core_0_LLC_average_miss_latency 933.61977

Core_0_LLC_rq_access 4522601
Core_0_LLC_rq_forward 0
Core_0_LLC_rq_merged 0
Core_0_LLC_rq_to_cache 4522167
Core_0_LLC_rq_full 0

Core_0_LLC_wq_access 2373471
Core_0_LLC_wq_forward 549
Core_0_LLC_wq_merged 0
Core_0_LLC_wq_to_cache 2373471
Core_0_LLC_wq_full 0

Core_0_LLC_pq_access 17621856
Core_0_LLC_pq_forward 0
Core_0_LLC_pq_merged 0
Core_0_LLC_pq_to_cache 17621738
Core_0_LLC_pq_full 0

Core_0_LLC_acc_epochs 721269
Core_0_LLC_acc_level_0 659556
Core_0_LLC_acc_level_1 33135
Core_0_LLC_acc_level_2 14600
Core_0_LLC_acc_level_3 3376
Core_0_LLC_acc_level_4 682
Core_0_LLC_acc_level_5 7157
Core_0_LLC_acc_level_6 540
Core_0_LLC_acc_level_7 484
Core_0_LLC_acc_level_8 142
Core_0_LLC_acc_level_9 1597

Core_0_major_page_fault 0
Core_0_minor_page_fault 17423

Core_1_instructions 150000002
Core_1_cycles 558456324
Core_1_IPC 0.26860

Core_1_branch_prediction_accuracy 97.64607
Core_1_branch_MPKI 4.06237
Core_1_average_ROB_occupancy_at_mispredict 79.95969

Core_1_L1D_total_access 19350268
Core_1_L1D_total_hit 16744743
Core_1_L1D_total_miss 2605525
Core_1_L1D_loads 12141014
Core_1_L1D_load_hit 10089528
Core_1_L1D_load_miss 2051486
Core_1_L1D_RFOs 7209254
Core_1_L1D_RFO_hit 6655215
Core_1_L1D_RFO_miss 554039
Core_1_L1D_prefetches 0
Core_1_L1D_prefetch_hit 0
Core_1_L1D_prefetch_miss 0
Core_1_L1D_writebacks 0
Core_1_L1D_writeback_hit 0
Core_1_L1D_writeback_miss 0
Core_1_L1D_prefetch_requested 0
Core_1_L1D_prefetch_dropped 0
Core_1_L1D_prefetch_issued 0
Core_1_L1D_prefetch_filled 0
Core_1_L1D_prefetch_useful 0
Core_1_L1D_prefetch_useless 0
Core_1_L1D_prefetch_late 0
Core_1_L1D_average_miss_latency 112.24019

Core_1_L1D_rq_access 30890699
Core_1_L1D_rq_forward 0
Core_1_L1D_rq_merged 14194878
Core_1_L1D_rq_to_cache 16693720
Core_1_L1D_rq_full 0

Core_1_L1D_wq_access 12274196
Core_1_L1D_wq_forward 2101
Core_1_L1D_wq_merged 44267
Core_1_L1D_wq_to_cache 12229929
Core_1_L1D_wq_full 18456

Core_1_L1D_pq_access 0
Core_1_L1D_pq_forward 0
Core_1_L1D_pq_merged 0
Core_1_L1D_pq_to_cache 0
Core_1_L1D_pq_full 0

Core_1_L1D_acc_epochs 189157
Core_1_L1D_acc_level_0 189157
Core_1_L1D_acc_level_1 0
Core_1_L1D_acc_level_2 0
Core_1_L1D_acc_level_3 0
Core_1_L1D_acc_level_4 0
Core_1_L1D_acc_level_5 0
Core_1_L1D_acc_level_6 0
Core_1_L1D_acc_level_7 0
Core_1_L1D_acc_level_8 0
Core_1_L1D_acc_level_9 0

Core_1_L1I_total_access 31039987
Core_1_L1I_total_hit 27208542
Core_1_L1I_total_miss 3831445
Core_1_L1I_loads 31039987
Core_1_L1I_load_hit 27208542
Core_1_L1I_load_miss 3831445
Core_1_L1I_RFOs 0
Core_1_L1I_RFO_hit 0
Core_1_L1I_RFO_miss 0
Core_1_L1I_prefetches 0
Core_1_L1I_prefetch_hit 0
Core_1_L1I_prefetch_miss 0
Core_1_L1I_writebacks 0
Core_1_L1I_writeback_hit 0
Core_1_L1I_writeback_miss 0
Core_1_L1I_prefetch_requested 0
Core_1_L1I_prefetch_dropped 0
Core_1_L1I_prefetch_issued 0
Core_1_L1I_prefetch_filled 0
Core_1_L1I_prefetch_useful 0
Core_1_L1I_prefetch_useless 0
Core_1_L1I_prefetch_late 0
Core_1_L1I_average_miss_latency 118.02187

Core_1_L1I_rq_access 191724259
Core_1_L1I_rq_forward 0
Core_1_L1I_rq_merged 149045891
Core_1_L1I_rq_to_cache 42678368
Core_1_L1I_rq_full 0

Core_1_L1I_wq_access 0
Core_1_L1I_wq_forward 0
Core_1_L1I_wq_merged 0
Core_1_L1I_wq_to_cache 0
Core_1_L1I_wq_full 0

Core_1_L1I_pq_access 0
Core_1_L1I_pq_forward 0
Core_1_L1I_pq_merged 0
Core_1_L1I_pq_to_cache 0
Core_1_L1I_pq_full 0

Core_1_L1I_acc_epochs 189157
Core_1_L1I_acc_level_0 189157
Core_1_L1I_acc_level_1 0
Core_1_L1I_acc_level_2 0
Core_1_L1I_acc_level_3 0
Core_1_L1I_acc_level_4 0
Core_1_L1I_acc_level_5 0
Core_1_L1I_acc_level_6 0
Core_1_L1I_acc_level_7 0
Core_1_L1I_acc_level_8 0
Core_1_L1I_acc_level_9 0

Core_1_L2C_total_access 15465348
Core_1_L2C_total_hit 12174180
Core_1_L2C_total_miss 3291168
Core_1_L2C_loads 5882798
Core_1_L2C_load_hit 5215693
Core_1_L2C_load_miss 667105
Core_1_L2C_RFOs 553791
Core_1_L2C_RFO_hit 272744
Core_1_L2C_RFO_miss 281047
Core_1_L2C_prefetches 8175469
Core_1_L2C_prefetch_hit 5876272
Core_1_L2C_prefetch_miss 2299197
Core_1_L2C_writebacks 853290
Core_1_L2C_writeback_hit 809471
Core_1_L2C_writeback_miss 43819
Core_1_L2C_prefetch_requested 14240537
Core_1_L2C_prefetch_dropped 5818
Core_1_L2C_prefetch_issued 14234719
Core_1_L2C_prefetch_filled 3502749
Core_1_L2C_prefetch_useful 1342947
Core_1_L2C_prefetch_useless 2157892
Core_1_L2C_prefetch_late 151929
Core_1_L2C_average_miss_latency 165.45776

Core_1_L2C_rq_access 8493040
Core_1_L2C_rq_forward 0
Core_1_L2C_rq_merged 0
Core_1_L2C_rq_to_cache 8492507
Core_1_L2C_rq_full 0

Core_1_L2C_wq_access 1106353
Core_1_L2C_wq_forward 558
Core_1_L2C_wq_merged 0
Core_1_L2C_wq_to_cache 1106353
Core_1_L2C_wq_full 0

Core_1_L2C_pq_access 14234719
Core_1_L2C_pq_forward 0
Core_1_L2C_pq_merged 21047
Core_1_L2C_pq_to_cache 14213647
Core_1_L2C_pq_full 0

Core_1_L2C_acc_epochs 189157
Core_1_L2C_acc_level_0 40498
Core_1_L2C_acc_level_1 40307
Core_1_L2C_acc_level_2 28647
Core_1_L2C_acc_level_3 15976
Core_1_L2C_acc_level_4 9412
Core_1_L2C_acc_level_5 7486
Core_1_L2C_acc_level_6 6273
Core_1_L2C_acc_level_7 4981
Core_1_L2C_acc_level_8 4127
Core_1_L2C_acc_level_9 31450

Core_1_LLC_total_access 3723544
Core_1_LLC_total_hit 2358173
Core_1_LLC_total_miss 1365371
Core_1_LLC_loads 550507
Core_1_LLC_load_hit 424637
Core_1_LLC_load_miss 125870
Core_1_LLC_RFOs 280783
Core_1_LLC_RFO_hit 133347
Core_1_LLC_RFO_miss 147436
Core_1_LLC_prefetches 2416018
Core_1_LLC_prefetch_hit 1370644
Core_1_LLC_prefetch_miss 1045374
Core_1_LLC_writebacks 476236
Core_1_LLC_writeback_hit 429545
Core_1_LLC_writeback_miss 46691
Core_1_LLC_prefetch_requested 0
Core_1_LLC_prefetch_dropped 0
Core_1_LLC_prefetch_issued 0
Core_1_LLC_prefetch_filled 6614615
Core_1_LLC_prefetch_useful 134855
Core_1_LLC_prefetch_useless 6401797
Core_1_LLC_prefetch_late 0
Core_1_LLC_average_miss_latency 794.93456

Core_1_LLC_rq_access 4522601
Core_1_LLC_rq_forward 0
Core_1_LLC_rq_merged 0
Core_1_LLC_rq_to_cache 4522167
Core_1_LLC_rq_full 0

Core_1_LLC_wq_access 2373471
Core_1_LLC_wq_forward 549
Core_1_LLC_wq_merged 0
Core_1_LLC_wq_to_cache 2373471
Core_1_LLC_wq_full 0

Core_1_LLC_pq_access 17621856
Core_1_LLC_pq_forward 0
Core_1_LLC_pq_merged 0
Core_1_LLC_pq_to_cache 17621738
Core_1_LLC_pq_full 0

Core_1_LLC_acc_epochs 721269
Core_1_LLC_acc_level_0 659556
Core_1_LLC_acc_level_1 33135
Core_1_LLC_acc_level_2 14600
Core_1_LLC_acc_level_3 3376
Core_1_LLC_acc_level_4 682
Core_1_LLC_acc_level_5 7157
Core_1_LLC_acc_level_6 540
Core_1_LLC_acc_level_7 484
Core_1_LLC_acc_level_8 142
Core_1_LLC_acc_level_9 1597

Core_1_major_page_fault 0
Core_1_minor_page_fault 19035

Core_2_instructions 150000002
Core_2_cycles 396109308
Core_2_IPC 0.37868

Core_2_branch_prediction_accuracy 97.96136
Core_2_branch_MPKI 2.97688
Core_2_average_ROB_occupancy_at_mispredict 76.68559

Core_2_L1D_total_access 14027417
Core_2_L1D_total_hit 12135204
Core_2_L1D_total_miss 1892213
Core_2_L1D_loads 10081505
Core_2_L1D_load_hit 8470082
Core_2_L1D_load_miss 1611423
Core_2_L1D_RFOs 3945912
Core_2_L1D_RFO_hit 3665122
Core_2_L1D_RFO_miss 280790
Core_2_L1D_prefetches 0
Core_2_L1D_prefetch_hit 0
Core_2_L1D_prefetch_miss 0
Core_2_L1D_writebacks 0
Core_2_L1D_writeback_hit 0
Core_2_L1D_writeback_miss 0
Core_2_L1D_prefetch_requested 0
Core_2_L1D_prefetch_dropped 0
Core_2_L1D_prefetch_issued 0
Core_2_L1D_prefetch_filled 0
Core_2_L1D_prefetch_useful 0
Core_2_L1D_prefetch_useless 0
Core_2_L1D_prefetch_late 0
Core_2_L1D_average_miss_latency 138.46837

Core_2_L1D_rq_access 39264526
Core_2_L1D_rq_forward 0
Core_2_L1D_rq_merged 18578560
Core_2_L1D_rq_to_cache 20682643
Core_2_L1D_rq_full 0

Core_2_L1D_wq_access 8899878
Core_2_L1D_wq_forward 3323
Core_2_L1D_wq_merged 30123
Core_2_L1D_wq_to_cache 8869755
Core_2_L1D_wq_full 6130

Core_2_L1D_pq_access 0
Core_2_L1D_pq_forward 0
Core_2_L1D_pq_merged 0
Core_2_L1D_pq_to_cache 0
Core_2_L1D_pq_full 0

Core_2_L1D_acc_epochs 218141
Core_2_L1D_acc_level_0 218141
Core_2_L1D_acc_level_1 0
Core_2_L1D_acc_level_2 0
Core_2_L1D_acc_level_3 0
Core_2_L1D_acc_level_4 0
Core_2_L1D_acc_level_5 0
Core_2_L1D_acc_level_6 0
Core_2_L1D_acc_level_7 0
Core_2_L1D_acc_level_8 0
Core_2_L1D_acc_level_9 0

Core_2_L1I_total_access 27585006
Core_2_L1I_total_hit 25879864
Core_2_L1I_total_miss 1705142
Core_2_L1I_loads 27585006
Core_2_L1I_load_hit 25879864
Core_2_L1I_load_miss 1705142
Core_2_L1I_RFOs 0
Core_2_L1I_RFO_hit 0
Core_2_L1I_RFO_miss 0
Core_2_L1I_prefetches 0
Core_2_L1I_prefetch_hit 0
Core_2_L1I_prefetch_miss 0
Core_2_L1I_writebacks 0
Core_2_L1I_writeback_hit 0
Core_2_L1I_writeback_miss 0
Core_2_L1I_prefetch_requested 0
Core_2_L1I_prefetch_dropped 0
Core_2_L1I_prefetch_issued 0
Core_2_L1I_prefetch_filled 0
Core_2_L1I_prefetch_useful 0
Core_2_L1I_prefetch_useless 0
Core_2_L1I_prefetch_late 0
Core_2_L1I_average_miss_latency 194.83223

Core_2_L1I_rq_access 266677522
Core_2_L1I_rq_forward 0
Core_2_L1I_rq_merged 215791571
Core_2_L1I_rq_to_cache 50885951
Core_2_L1I_rq_full 0

Core_2_L1I_wq_access 0
Core_2_L1I_wq_forward 0
Core_2_L1I_wq_merged 0
Core_2_L1I_wq_to_cache 0
Core_2_L1I_wq_full 0

Core_2_L1I_pq_access 0
Core_2_L1I_pq_forward 0
Core_2_L1I_pq_merged 0
Core_2_L1I_pq_to_cache 0
Core_2_L1I_pq_full 0

Core_2_L1I_acc_epochs 218141
Core_2_L1I_acc_level_0 218141
Core_2_L1I_acc_level_1 0
Core_2_L1I_acc_level_2 0
Core_2_L1I_acc_level_3 0
Core_2_L1I_acc_level_4 0
Core_2_L1I_acc_level_5 0
Core_2_L1I_acc_level_6 0
Core_2_L1I_acc_level_7 0
Core_2_L1I_acc_level_8 0
Core_2_L1I_acc_level_9 0

Core_2_L2C_total_access 9740050
Core_2_L2C_total_hit 5911504
Core_2_L2C_total_miss 3828546
Core_2_L2C_loads 3316480
Core_2_L2C_load_hit 2554968
Core_2_L2C_load_miss 761512
Core_2_L2C_RFOs 280654
Core_2_L2C_RFO_hit 132704
Core_2_L2C_RFO_miss 147950
Core_2_L2C_prefetches 5621117
Core_2_L2C_prefetch_hit 2765625
Core_2_L2C_prefetch_miss 2855492
Core_2_L2C_writebacks 521799
Core_2_L2C_writeback_hit 458207
Core_2_L2C_writeback_miss 63592
Core_2_L2C_prefetch_requested 13429771
Core_2_L2C_prefetch_dropped 24709
Core_2_L2C_prefetch_issued 13405062
Core_2_L2C_prefetch_filled 6376080
Core_2_L2C_prefetch_useful 2423447
Core_2_L2C_prefetch_useless 3950293
Core_2_L2C_prefetch_late 118784
Core_2_L2C_average_miss_latency 239.88206

Core_2_L2C_rq_access 6540299
Core_2_L2C_rq_forward 0
Core_2_L2C_rq_merged 0
Core_2_L2C_rq_to_cache 6539897
Core_2_L2C_rq_full 0

Core_2_L2C_wq_access 952386
Core_2_L2C_wq_forward 421
Core_2_L2C_wq_merged 0
Core_2_L2C_wq_to_cache 952386
Core_2_L2C_wq_full 0

Core_2_L2C_pq_access 13405062
Core_2_L2C_pq_forward 0
Core_2_L2C_pq_merged 14831
Core_2_L2C_pq_to_cache 13390212
Core_2_L2C_pq_full 0

Core_2_L2C_acc_epochs 218141
Core_2_L2C_acc_level_0 14811
Core_2_L2C_acc_level_1 46338
Core_2_L2C_acc_level_2 28009
Core_2_L2C_acc_level_3 11471
Core_2_L2C_acc_level_4 7160
Core_2_L2C_acc_level_5 8939
Core_2_L2C_acc_level_6 13706
Core_2_L2C_acc_level_7 15403
Core_2_L2C_acc_level_8 21267
Core_2_L2C_acc_level_9 51037

Core_2_LLC_total_access 4103493
Core_2_LLC_total_hit 2825805
Core_2_LLC_total_miss 1277688
Core_2_LLC_loads 697113
Core_2_LLC_load_hit 609204
Core_2_LLC_load_miss 87909
Core_2_LLC_RFOs 147629
Core_2_LLC_RFO_hit 97440
Core_2_LLC_RFO_miss 50189
Core_2_LLC_prefetches 2920078
Core_2_LLC_prefetch_hit 1798931
Core_2_LLC_prefetch_miss 1121147
Core_2_LLC_writebacks 338673
Core_2_LLC_writeback_hit 320230
Core_2_LLC_writeback_miss 18443
Core_2_LLC_prefetch_requested 0
Core_2_LLC_prefetch_dropped 0
Core_2_LLC_prefetch_issued 0
Core_2_LLC_prefetch_filled 6614615
Core_2_LLC_prefetch_useful 134855
Core_2_LLC_prefetch_useless 6401797
Core_2_LLC_prefetch_late 0
Core_2_LLC_average_miss_latency 849.48798

Core_2_LLC_rq_access 4522601
Core_2_LLC_rq_forward 0
Core_2_LLC_rq_merged 0
Core_2_LLC_rq_to_cache 4522167
Core_2_LLC_rq_full 0

Core_2_LLC_wq_access 2373471
Core_2_LLC_wq_forward 549
Core_2_LLC_wq_merged 0
Core_2_LLC_wq_to_cache 2373471
Core_2_LLC_wq_full 0

Core_2_LLC_pq_access 17621856
Core_2_LLC_pq_forward 0
Core_2_LLC_pq_merged 0
Core_2_LLC_pq_to_cache 17621738
Core_2_LLC_pq_full 0

Core_2_LLC_acc_epochs 721269
Core_2_LLC_acc_level_0 659556
Core_2_LLC_acc_level_1 33135
Core_2_LLC_acc_level_2 14600
Core_2_LLC_acc_level_3 3376
Core_2_LLC_acc_level_4 682
Core_2_LLC_acc_level_5 7157
Core_2_LLC_acc_level_6 540
Core_2_LLC_acc_level_7 484
Core_2_LLC_acc_level_8 142
Core_2_LLC_acc_level_9 1597

Core_2_major_page_fault 0
Core_2_minor_page_fault 17714

Core_3_instructions 150000001
Core_3_cycles 675340363
Core_3_IPC 0.22211

Core_3_branch_prediction_accuracy 97.83026
Core_3_branch_MPKI 3.80225
Core_3_average_ROB_occupancy_at_mispredict 82.74060

Core_3_L1D_total_access 21704955
Core_3_L1D_total_hit 18896352
Core_3_L1D_total_miss 2808603
Core_3_L1D_loads 13183729
Core_3_L1D_load_hit 10958365
Core_3_L1D_load_miss 2225364
Core_3_L1D_RFOs 8521226
Core_3_L1D_RFO_hit 7937987
Core_3_L1D_RFO_miss 583239
Core_3_L1D_prefetches 0
Core_3_L1D_prefetch_hit 0
Core_3_L1D_prefetch_miss 0
Core_3_L1D_writebacks 0
Core_3_L1D_writeback_hit 0
Core_3_L1D_writeback_miss 0
Core_3_L1D_prefetch_requested 0
Core_3_L1D_prefetch_dropped 0
Core_3_L1D_prefetch_issued 0
Core_3_L1D_prefetch_filled 0
Core_3_L1D_prefetch_useful 0
Core_3_L1D_prefetch_useless 0
Core_3_L1D_prefetch_late 0
Core_3_L1D_average_miss_latency 101.18980

Core_3_L1D_rq_access 27093174
Core_3_L1D_rq_forward 0
Core_3_L1D_rq_merged 12000383
Core_3_L1D_rq_to_cache 15090635
Core_3_L1D_rq_full 0

Core_3_L1D_wq_access 11197137
Core_3_L1D_wq_forward 2156
Core_3_L1D_wq_merged 46935
Core_3_L1D_wq_to_cache 11150202
Core_3_L1D_wq_full 27691

Core_3_L1D_pq_access 0
Core_3_L1D_pq_forward 0
Core_3_L1D_pq_merged 0
Core_3_L1D_pq_to_cache 0
Core_3_L1D_pq_full 0

Core_3_L1D_acc_epochs 170588
Core_3_L1D_acc_level_0 170588
Core_3_L1D_acc_level_1 0
Core_3_L1D_acc_level_2 0
Core_3_L1D_acc_level_3 0
Core_3_L1D_acc_level_4 0
Core_3_L1D_acc_level_5 0
Core_3_L1D_acc_level_6 0
Core_3_L1D_acc_level_7 0
Core_3_L1D_acc_level_8 0
Core_3_L1D_acc_level_9 0

Core_3_L1I_total_access 32641301
Core_3_L1I_total_hit 28476311
Core_3_L1I_total_miss 4164990
Core_3_L1I_loads 32641301
Core_3_L1I_load_hit 28476311
Core_3_L1I_load_miss 4164990
Core_3_L1I_RFOs 0
Core_3_L1I_RFO_hit 0
Core_3_L1I_RFO_miss 0
Core_3_L1I_prefetches 0
Core_3_L1I_prefetch_hit 0
Core_3_L1I_prefetch_miss 0
Core_3_L1I_writebacks 0
Core_3_L1I_writeback_hit 0
Core_3_L1I_writeback_miss 0
Core_3_L1I_prefetch_requested 0
Core_3_L1I_prefetch_dropped 0
Core_3_L1I_prefetch_issued 0
Core_3_L1I_prefetch_filled 0
Core_3_L1I_prefetch_useful 0
Core_3_L1I_prefetch_useless 0
Core_3_L1I_prefetch_late 0
Core_3_L1I_average_miss_latency 91.17946

Core_3_L1I_rq_access 168207184
Core_3_L1I_rq_forward 0
Core_3_L1I_rq_merged 129657911
Core_3_L1I_rq_to_cache 38549273
Core_3_L1I_rq_full 0

Core_3_L1I_wq_access 0
Core_3_L1I_wq_forward 0
Core_3_L1I_wq_merged 0
Core_3_L1I_wq_to_cache 0
Core_3_L1I_wq_full 0

Core_3_L1I_pq_access 0
Core_3_L1I_pq_forward 0
Core_3_L1I_pq_merged 0
Core_3_L1I_pq_to_cache 0
Core_3_L1I_pq_full 0

Core_3_L1I_acc_epochs 170588
Core_3_L1I_acc_level_0 170588
Core_3_L1I_acc_level_1 0
Core_3_L1I_acc_level_2 0
Core_3_L1I_acc_level_3 0
Core_3_L1I_acc_level_4 0
Core_3_L1I_acc_level_5 0
Core_3_L1I_acc_level_6 0
Core_3_L1I_acc_level_7 0
Core_3_L1I_acc_level_8 0
Core_3_L1I_acc_level_9 0

Core_3_L2C_total_access 16937240
Core_3_L2C_total_hit 13427759
Core_3_L2C_total_miss 3509481
Core_3_L2C_loads 6390036
Core_3_L2C_load_hit 5711280
Core_3_L2C_load_miss 678756
Core_3_L2C_RFOs 582884
Core_3_L2C_RFO_hit 303182
Core_3_L2C_RFO_miss 279702
Core_3_L2C_prefetches 9005794
Core_3_L2C_prefetch_hit 6503630
Core_3_L2C_prefetch_miss 2502164
Core_3_L2C_writebacks 958526
Core_3_L2C_writeback_hit 909667
Core_3_L2C_writeback_miss 48859
Core_3_L2C_prefetch_requested 11996528
Core_3_L2C_prefetch_dropped 2778
Core_3_L2C_prefetch_issued 11993750
Core_3_L2C_prefetch_filled 3806301
Core_3_L2C_prefetch_useful 1821711
Core_3_L2C_prefetch_useless 1983443
Core_3_L2C_prefetch_late 120426
Core_3_L2C_average_miss_latency 155.64271

Core_3_L2C_rq_access 7378351
Core_3_L2C_rq_forward 0
Core_3_L2C_rq_merged 0
Core_3_L2C_rq_to_cache 7377663
Core_3_L2C_rq_full 0

Core_3_L2C_wq_access 1007432
Core_3_L2C_wq_forward 712
Core_3_L2C_wq_merged 0
Core_3_L2C_wq_to_cache 1007432
Core_3_L2C_wq_full 0

Core_3_L2C_pq_access 11993750
Core_3_L2C_pq_forward 0
Core_3_L2C_pq_merged 17607
Core_3_L2C_pq_to_cache 11976119
Core_3_L2C_pq_full 0

Core_3_L2C_acc_epochs 170588
Core_3_L2C_acc_level_0 34233
Core_3_L2C_acc_level_1 32579
Core_3_L2C_acc_level_2 20572
Core_3_L2C_acc_level_3 11457
Core_3_L2C_acc_level_4 7059
Core_3_L2C_acc_level_5 8233
Core_3_L2C_acc_level_6 11911
Core_3_L2C_acc_level_7 12080
Core_3_L2C_acc_level_8 6505
Core_3_L2C_acc_level_9 25959

Core_3_LLC_total_access 4012518
Core_3_LLC_total_hit 2696239
Core_3_LLC_total_miss 1316279
Core_3_LLC_loads 566244
Core_3_LLC_load_hit 438643
Core_3_LLC_load_miss 127601
Core_3_LLC_RFOs 279424
Core_3_LLC_RFO_hit 149404
Core_3_LLC_RFO_miss 130020
Core_3_LLC_prefetches 2614826
Core_3_LLC_prefetch_hit 1606340
Core_3_LLC_prefetch_miss 1008486
Core_3_LLC_writebacks 552024
Core_3_LLC_writeback_hit 501852
Core_3_LLC_writeback_miss 50172
Core_3_LLC_prefetch_requested 0
Core_3_LLC_prefetch_dropped 0
Core_3_LLC_prefetch_issued 0
Core_3_LLC_prefetch_filled 6614615
Core_3_LLC_prefetch_useful 134855
Core_3_LLC_prefetch_useless 6401797
Core_3_LLC_prefetch_late 0
Core_3_LLC_average_miss_latency 824.58248

Core_3_LLC_rq_access 4522601
Core_3_LLC_rq_forward 0
Core_3_LLC_rq_merged 0
Core_3_LLC_rq_to_cache 4522167
Core_3_LLC_rq_full 0

Core_3_LLC_wq_access 2373471
Core_3_LLC_wq_forward 549
Core_3_LLC_wq_merged 0
Core_3_LLC_wq_to_cache 2373471
Core_3_LLC_wq_full 0

Core_3_LLC_pq_access 17621856
Core_3_LLC_pq_forward 0
Core_3_LLC_pq_merged 0
Core_3_LLC_pq_to_cache 17621738
Core_3_LLC_pq_full 0

Core_3_LLC_acc_epochs 721269
Core_3_LLC_acc_level_0 659556
Core_3_LLC_acc_level_1 33135
Core_3_LLC_acc_level_2 14600
Core_3_LLC_acc_level_3 3376
Core_3_LLC_acc_level_4 682
Core_3_LLC_acc_level_5 7157
Core_3_LLC_acc_level_6 540
Core_3_LLC_acc_level_7 484
Core_3_LLC_acc_level_8 142
Core_3_LLC_acc_level_9 1597

Core_3_major_page_fault 0
Core_3_minor_page_fault 15536

Channel_0_RQ_row_buffer_hit 1002690
Channel_0_RQ_row_buffer_miss 2193216
Channel_0_WQ_row_buffer_hit 78418
Channel_0_WQ_row_buffer_miss 381020
Channel_0_WQ_full 0
Channel_0_dbus_congested 1006874

Channel_1_RQ_row_buffer_hit 998829
Channel_1_RQ_row_buffer_miss 2188034
Channel_1_WQ_row_buffer_hit 78550
Channel_1_WQ_row_buffer_miss 378054
Channel_1_WQ_full 0
Channel_1_dbus_congested 993585

avg_congested_cycle 9

DRAM_bw_pochs 2885074
DRAM_bw_level_0 2462682
DRAM_bw_level_1 353605
DRAM_bw_level_2 49408
DRAM_bw_level_3 19379
