*************************************************
   ChampSim Multicore Out-of-Order Simulator
   Last compiled: Mar 31 2025 20:14:32
*************************************************
parsing config file: /data3/config/bingo.ini

trace_0 /data3/STREAMING/traces/streaming_phase2_core0.trace.xz
trace_1 /data3/STREAMING/traces/streaming_phase2_core1.trace.xz
trace_2 /data3/STREAMING/traces/streaming_phase2_core2.trace.xz
trace_3 /data3/STREAMING/traces/streaming_phase2_core3.trace.xz
adding L2C_PREFETCHER: Bingo
adding L2C_PREFETCHER: Bingo
adding L2C_PREFETCHER: Bingo
adding L2C_PREFETCHER: Bingo
Initialize SHIP state
warmup_instructions 50000000
simulation_instructions 150000000
champsim_seed 8854
measure_ipc 0
measure_ipc_epoch 1000
measure_dram_bw 1
measure_dram_bw_epoch 256
measure_cache_acc 1
measure_cache_acc_epoch 1024
l1d_perfect 0
l2c_perfect 0
llc_perfect 0
l1d_semi_perfect 0
l2c_semi_perfect 0
llc_semi_perfect 0
semi_perfect_cache_page_buffer_size 64

num_cpus 4
cpu_freq 4000
dram_io_freq 2400
page_size 4096
block_size 64
max_read_per_cycle 8
max_fill_per_cycle 1
dram_channels 2
log2_dram_channels 1
dram_ranks 1
dram_banks 8
dram_rows 65536
dram_columns 128
dram_row_size 8
dram_size 8192
dram_pages 2097152

fetch_width 6
decode_width 6
exec_width 4
lq_width 2
sq_width 2
retire_width 4
scheduler_size 128
branch_mispredict_penalty 20
rob_size 256
lq_size 72
sq_size 56
num_instr_destinations_sparc 4
num_instr_destinations 2
num_instr_sources 4

itlb_set 16
itlb_way 8
itlb_rq_size 16
itlb_wq_size 16
itlb_pq_size 0
itlb_mshr_size 8
itlb_latency 1

dtlb_set 16
dtlb_way 4
dtlb_rq_size 16
dtlb_wq_size 16
dtlb_pq_size 0
dtlb_mshr_size 8
dtlb_latency 1

stlb_set 128
stlb_way 12
stlb_rq_size 32
stlb_wq_size 32
stlb_pq_size 0
stlb_mshr_size 16
stlb_latency 8

l1i_size 32
l1i_set 64
l1i_way 8
l1i_rq_size 64
l1i_wq_size 64
l1i_pq_size 8
l1i_mshr_size 8
l1i_latency 1

l1d_size 32
l1d_set 64
l1d_way 8
l1d_rq_size 64
l1d_wq_size 64
l1d_pq_size 8
l1d_mshr_size 16
l1d_latency 4

l2c_size 256
l2c_set 512
l2c_way 8
l2c_rq_size 32
l2c_wq_size 32
l2c_pq_size 32
l2c_mshr_size 32
l2c_latency 10

llc_size 8192
llc_set 8192
llc_way 16
llc_rq_size 128
llc_wq_size 128
llc_pq_size 128
llc_mshr_size 256
llc_latency 20

dram_channel_width 8
dram_wq_size 64
dram_rq_size 64
tRP 15
tRCD 15
tCAS 12.5
dram_dbus_turn_around_time 30
dram_write_high_wm 56
dram_write_low_wm 48
min_dram_writes_per_switch 16
dram_mtps 2400
dram_dbus_return_time 13

bingo_region_size 2048
bingo_pattern_len 32
bingo_pc_width 16
bingo_min_addr_width 5
bingo_max_addr_width 16
bingo_ft_size 64
bingo_at_size 128
bingo_pht_size 4096
bingo_pht_ways 16
bingo_pf_streamer_size 128
bingo_debug_level 0
bingo_l1d_thresh 1.01
bingo_l2c_thresh 0.8
bingo_llc_thresh 0.05
bingo_pc_address_fill_level L2


Heartbeat CPU  3 instructions:    1000003 cycles:     276751 heartbeat IPC: 3.61337 cumulative IPC: 3.61337 (Simulation time: 0 hr 0 min 4 sec) 
Heartbeat CPU  2 instructions:    1000002 cycles:     306318 heartbeat IPC: 3.26459 cumulative IPC: 3.26459 (Simulation time: 0 hr 0 min 4 sec) 
Heartbeat CPU  3 instructions:    2000001 cycles:     544079 heartbeat IPC: 3.74072 cumulative IPC: 3.67594 (Simulation time: 0 hr 0 min 8 sec) 
Heartbeat CPU  0 instructions:    1000002 cycles:     556470 heartbeat IPC: 1.79705 cumulative IPC: 1.79705 (Simulation time: 0 hr 0 min 8 sec) 
Heartbeat CPU  1 instructions:    1000001 cycles:     585533 heartbeat IPC: 1.70785 cumulative IPC: 1.70785 (Simulation time: 0 hr 0 min 9 sec) 
Heartbeat CPU  2 instructions:    2000002 cycles:     602662 heartbeat IPC: 3.37446 cumulative IPC: 3.31861 (Simulation time: 0 hr 0 min 9 sec) 
Heartbeat CPU  3 instructions:    3000002 cycles:     813970 heartbeat IPC: 3.70520 cumulative IPC: 3.68564 (Simulation time: 0 hr 0 min 13 sec) 
Heartbeat CPU  2 instructions:    3000003 cycles:     890286 heartbeat IPC: 3.47676 cumulative IPC: 3.36971 (Simulation time: 0 hr 0 min 14 sec) 
Heartbeat CPU  0 instructions:    2000002 cycles:    1070987 heartbeat IPC: 1.94357 cumulative IPC: 1.86744 (Simulation time: 0 hr 0 min 17 sec) 
Heartbeat CPU  1 instructions:    2000003 cycles:    1075232 heartbeat IPC: 2.04207 cumulative IPC: 1.86007 (Simulation time: 0 hr 0 min 17 sec) 
Heartbeat CPU  3 instructions:    4000000 cycles:    1080097 heartbeat IPC: 3.75760 cumulative IPC: 3.70337 (Simulation time: 0 hr 0 min 17 sec) 
Heartbeat CPU  2 instructions:    4000000 cycles:    1181288 heartbeat IPC: 3.43639 cumulative IPC: 3.38613 (Simulation time: 0 hr 0 min 19 sec) 
Heartbeat CPU  3 instructions:    5000003 cycles:    1349850 heartbeat IPC: 3.70711 cumulative IPC: 3.70412 (Simulation time: 0 hr 0 min 22 sec) 
Heartbeat CPU  2 instructions:    5000000 cycles:    1478259 heartbeat IPC: 3.36733 cumulative IPC: 3.38236 (Simulation time: 0 hr 0 min 24 sec) 
Heartbeat CPU  0 instructions:    3000001 cycles:    1580233 heartbeat IPC: 1.96369 cumulative IPC: 1.89845 (Simulation time: 0 hr 0 min 26 sec) 
Heartbeat CPU  1 instructions:    3000001 cycles:    1583234 heartbeat IPC: 1.96849 cumulative IPC: 1.89486 (Simulation time: 0 hr 0 min 26 sec) 
Heartbeat CPU  3 instructions:    6000001 cycles:    1614630 heartbeat IPC: 3.77671 cumulative IPC: 3.71602 (Simulation time: 0 hr 0 min 26 sec) 
Heartbeat CPU  2 instructions:    6000002 cycles:    1767541 heartbeat IPC: 3.45684 cumulative IPC: 3.39455 (Simulation time: 0 hr 0 min 29 sec) 
Heartbeat CPU  3 instructions:    7000000 cycles:    1878956 heartbeat IPC: 3.78320 cumulative IPC: 3.72547 (Simulation time: 0 hr 0 min 31 sec) 
Heartbeat CPU  2 instructions:    7000003 cycles:    2056721 heartbeat IPC: 3.45806 cumulative IPC: 3.40348 (Simulation time: 0 hr 0 min 34 sec) 
Heartbeat CPU  0 instructions:    4000000 cycles:    2057730 heartbeat IPC: 2.09425 cumulative IPC: 1.94389 (Simulation time: 0 hr 0 min 34 sec) 
Heartbeat CPU  1 instructions:    4000000 cycles:    2069346 heartbeat IPC: 2.05714 cumulative IPC: 1.93298 (Simulation time: 0 hr 0 min 35 sec) 
Heartbeat CPU  3 instructions:    8000000 cycles:    2145141 heartbeat IPC: 3.75679 cumulative IPC: 3.72936 (Simulation time: 0 hr 0 min 36 sec) 
Heartbeat CPU  2 instructions:    8000000 cycles:    2349558 heartbeat IPC: 3.41486 cumulative IPC: 3.40490 (Simulation time: 0 hr 0 min 39 sec) 
Heartbeat CPU  3 instructions:    9000002 cycles:    2410291 heartbeat IPC: 3.77146 cumulative IPC: 3.73399 (Simulation time: 0 hr 0 min 40 sec) 
Heartbeat CPU  0 instructions:    5000001 cycles:    2550959 heartbeat IPC: 2.02746 cumulative IPC: 1.96005 (Simulation time: 0 hr 0 min 43 sec) 
Heartbeat CPU  1 instructions:    5000001 cycles:    2559235 heartbeat IPC: 2.04128 cumulative IPC: 1.95371 (Simulation time: 0 hr 0 min 43 sec) 
Heartbeat CPU  2 instructions:    9000002 cycles:    2640696 heartbeat IPC: 3.43480 cumulative IPC: 3.40819 (Simulation time: 0 hr 0 min 44 sec) 
Heartbeat CPU  3 instructions:   10000003 cycles:    2914273 heartbeat IPC: 1.98420 cumulative IPC: 3.43139 (Simulation time: 0 hr 0 min 48 sec) 
Heartbeat CPU  0 instructions:    6000000 cycles:    3019909 heartbeat IPC: 2.13242 cumulative IPC: 1.98681 (Simulation time: 0 hr 0 min 49 sec) 
Heartbeat CPU  1 instructions:    6000003 cycles:    3052567 heartbeat IPC: 2.02704 cumulative IPC: 1.96556 (Simulation time: 0 hr 0 min 50 sec) 
Heartbeat CPU  2 instructions:   10000000 cycles:    3227777 heartbeat IPC: 1.70334 cumulative IPC: 3.09811 (Simulation time: 0 hr 0 min 52 sec) 
Heartbeat CPU  3 instructions:   11000002 cycles:    3492299 heartbeat IPC: 1.73002 cumulative IPC: 3.14979 (Simulation time: 0 hr 0 min 55 sec) 
Heartbeat CPU  0 instructions:    7000003 cycles:    3498335 heartbeat IPC: 2.09019 cumulative IPC: 2.00095 (Simulation time: 0 hr 0 min 56 sec) 
Heartbeat CPU  1 instructions:    7000000 cycles:    3500660 heartbeat IPC: 2.23167 cumulative IPC: 1.99962 (Simulation time: 0 hr 0 min 56 sec) 
Heartbeat CPU  2 instructions:   11000001 cycles:    3908580 heartbeat IPC: 1.46886 cumulative IPC: 2.81432 (Simulation time: 0 hr 1 min 1 sec) 
Heartbeat CPU  0 instructions:    8000000 cycles:    3962460 heartbeat IPC: 2.15459 cumulative IPC: 2.01895 (Simulation time: 0 hr 1 min 2 sec) 
Heartbeat CPU  1 instructions:    8000000 cycles:    3984981 heartbeat IPC: 2.06475 cumulative IPC: 2.00754 (Simulation time: 0 hr 1 min 2 sec) 
Heartbeat CPU  3 instructions:   12000000 cycles:    4053924 heartbeat IPC: 1.78054 cumulative IPC: 2.96009 (Simulation time: 0 hr 1 min 3 sec) 
Heartbeat CPU  0 instructions:    9000001 cycles:    4434056 heartbeat IPC: 2.12046 cumulative IPC: 2.02974 (Simulation time: 0 hr 1 min 8 sec) 
Heartbeat CPU  1 instructions:    9000000 cycles:    4451777 heartbeat IPC: 2.14226 cumulative IPC: 2.02166 (Simulation time: 0 hr 1 min 8 sec) 
Heartbeat CPU  2 instructions:   12000000 cycles:    4516407 heartbeat IPC: 1.64520 cumulative IPC: 2.65698 (Simulation time: 0 hr 1 min 9 sec) 
Heartbeat CPU  3 instructions:   13000003 cycles:    4596151 heartbeat IPC: 1.84425 cumulative IPC: 2.82845 (Simulation time: 0 hr 1 min 10 sec) 
Heartbeat CPU  0 instructions:   10000001 cycles:    4948939 heartbeat IPC: 1.94219 cumulative IPC: 2.02064 (Simulation time: 0 hr 1 min 15 sec) 
Heartbeat CPU  1 instructions:   10000000 cycles:    4952282 heartbeat IPC: 1.99798 cumulative IPC: 2.01927 (Simulation time: 0 hr 1 min 15 sec) 
Heartbeat CPU  3 instructions:   14000002 cycles:    5085126 heartbeat IPC: 2.04509 cumulative IPC: 2.75313 (Simulation time: 0 hr 1 min 17 sec) 
Heartbeat CPU  2 instructions:   13000000 cycles:    5090603 heartbeat IPC: 1.74157 cumulative IPC: 2.55373 (Simulation time: 0 hr 1 min 17 sec) 
Heartbeat CPU  0 instructions:   11000002 cycles:    5472104 heartbeat IPC: 1.91144 cumulative IPC: 2.01020 (Simulation time: 0 hr 1 min 22 sec) 
Heartbeat CPU  1 instructions:   11000000 cycles:    5498560 heartbeat IPC: 1.83057 cumulative IPC: 2.00052 (Simulation time: 0 hr 1 min 22 sec) 
Heartbeat CPU  3 instructions:   15000000 cycles:    5610558 heartbeat IPC: 1.90319 cumulative IPC: 2.67353 (Simulation time: 0 hr 1 min 24 sec) 
Heartbeat CPU  2 instructions:   14000003 cycles:    5642471 heartbeat IPC: 1.81203 cumulative IPC: 2.48118 (Simulation time: 0 hr 1 min 24 sec) 
Heartbeat CPU  0 instructions:   12000000 cycles:    5954386 heartbeat IPC: 2.07347 cumulative IPC: 2.01532 (Simulation time: 0 hr 1 min 28 sec) 
Heartbeat CPU  1 instructions:   12000000 cycles:    6021533 heartbeat IPC: 1.91214 cumulative IPC: 1.99285 (Simulation time: 0 hr 1 min 29 sec) 
Heartbeat CPU  2 instructions:   15000000 cycles:    6218477 heartbeat IPC: 1.73609 cumulative IPC: 2.41217 (Simulation time: 0 hr 1 min 31 sec) 
Heartbeat CPU  3 instructions:   16000000 cycles:    6232053 heartbeat IPC: 1.60902 cumulative IPC: 2.56737 (Simulation time: 0 hr 1 min 31 sec) 
Heartbeat CPU  0 instructions:   13000000 cycles:    6492080 heartbeat IPC: 1.85979 cumulative IPC: 2.00244 (Simulation time: 0 hr 1 min 35 sec) 
Heartbeat CPU  1 instructions:   13000002 cycles:    6557388 heartbeat IPC: 1.86618 cumulative IPC: 1.98250 (Simulation time: 0 hr 1 min 35 sec) 
Heartbeat CPU  2 instructions:   16000000 cycles:    6826080 heartbeat IPC: 1.64581 cumulative IPC: 2.34395 (Simulation time: 0 hr 1 min 38 sec) 
Heartbeat CPU  3 instructions:   17000000 cycles:    6905359 heartbeat IPC: 1.48521 cumulative IPC: 2.46186 (Simulation time: 0 hr 1 min 40 sec) 
Heartbeat CPU  0 instructions:   14000001 cycles:    7018304 heartbeat IPC: 1.90033 cumulative IPC: 1.99478 (Simulation time: 0 hr 1 min 41 sec) 
Heartbeat CPU  1 instructions:   14000000 cycles:    7082015 heartbeat IPC: 1.90611 cumulative IPC: 1.97684 (Simulation time: 0 hr 1 min 42 sec) 
Heartbeat CPU  2 instructions:   17000000 cycles:    7426791 heartbeat IPC: 1.66469 cumulative IPC: 2.28901 (Simulation time: 0 hr 1 min 46 sec) 
Heartbeat CPU  3 instructions:   18000002 cycles:    7478182 heartbeat IPC: 1.74574 cumulative IPC: 2.40700 (Simulation time: 0 hr 1 min 47 sec) 
Heartbeat CPU  0 instructions:   15000000 cycles:    7490784 heartbeat IPC: 2.11649 cumulative IPC: 2.00246 (Simulation time: 0 hr 1 min 47 sec) 
Heartbeat CPU  1 instructions:   15000002 cycles:    7602530 heartbeat IPC: 1.92118 cumulative IPC: 1.97303 (Simulation time: 0 hr 1 min 48 sec) 
Heartbeat CPU  3 instructions:   19000000 cycles:    8015785 heartbeat IPC: 1.86010 cumulative IPC: 2.37032 (Simulation time: 0 hr 1 min 53 sec) 
Heartbeat CPU  0 instructions:   16000000 cycles:    8022164 heartbeat IPC: 1.88189 cumulative IPC: 1.99447 (Simulation time: 0 hr 1 min 53 sec) 
Heartbeat CPU  2 instructions:   18000000 cycles:    8035266 heartbeat IPC: 1.64345 cumulative IPC: 2.24012 (Simulation time: 0 hr 1 min 54 sec) 
Heartbeat CPU  1 instructions:   16000000 cycles:    8138010 heartbeat IPC: 1.86748 cumulative IPC: 1.96608 (Simulation time: 0 hr 1 min 55 sec) 
Heartbeat CPU  0 instructions:   17000001 cycles:    8556683 heartbeat IPC: 1.87084 cumulative IPC: 1.98675 (Simulation time: 0 hr 2 min 0 sec) 
Heartbeat CPU  3 instructions:   20000000 cycles:    8568299 heartbeat IPC: 1.80991 cumulative IPC: 2.33419 (Simulation time: 0 hr 2 min 0 sec) 
Heartbeat CPU  2 instructions:   19000003 cycles:    8639030 heartbeat IPC: 1.65628 cumulative IPC: 2.19932 (Simulation time: 0 hr 2 min 1 sec) 
Heartbeat CPU  1 instructions:   17000002 cycles:    8743000 heartbeat IPC: 1.65292 cumulative IPC: 1.94441 (Simulation time: 0 hr 2 min 2 sec) 
Heartbeat CPU  0 instructions:   18000000 cycles:    9095356 heartbeat IPC: 1.85641 cumulative IPC: 1.97903 (Simulation time: 0 hr 2 min 6 sec) 
Heartbeat CPU  3 instructions:   21000003 cycles:    9099802 heartbeat IPC: 1.88146 cumulative IPC: 2.30774 (Simulation time: 0 hr 2 min 7 sec) 
Heartbeat CPU  2 instructions:   20000000 cycles:    9243147 heartbeat IPC: 1.65530 cumulative IPC: 2.16377 (Simulation time: 0 hr 2 min 8 sec) 
Heartbeat CPU  1 instructions:   18000001 cycles:    9293071 heartbeat IPC: 1.81795 cumulative IPC: 1.93693 (Simulation time: 0 hr 2 min 9 sec) 
Heartbeat CPU  0 instructions:   19000001 cycles:    9632857 heartbeat IPC: 1.86046 cumulative IPC: 1.97242 (Simulation time: 0 hr 2 min 13 sec) 
Heartbeat CPU  3 instructions:   22000001 cycles:    9656625 heartbeat IPC: 1.79590 cumulative IPC: 2.27823 (Simulation time: 0 hr 2 min 13 sec) 
Heartbeat CPU  1 instructions:   19000001 cycles:    9837962 heartbeat IPC: 1.83523 cumulative IPC: 1.93129 (Simulation time: 0 hr 2 min 15 sec) 
Heartbeat CPU  2 instructions:   21000000 cycles:    9852679 heartbeat IPC: 1.64060 cumulative IPC: 2.13140 (Simulation time: 0 hr 2 min 16 sec) 
Heartbeat CPU  0 instructions:   20000000 cycles:   10199368 heartbeat IPC: 1.76519 cumulative IPC: 1.96091 (Simulation time: 0 hr 2 min 20 sec) 
Heartbeat CPU  3 instructions:   23000000 cycles:   10201976 heartbeat IPC: 1.83368 cumulative IPC: 2.25447 (Simulation time: 0 hr 2 min 20 sec) 
Heartbeat CPU  1 instructions:   20000000 cycles:   10356697 heartbeat IPC: 1.92776 cumulative IPC: 1.93112 (Simulation time: 0 hr 2 min 22 sec) 
Heartbeat CPU  2 instructions:   22000002 cycles:   10462972 heartbeat IPC: 1.63856 cumulative IPC: 2.10265 (Simulation time: 0 hr 2 min 23 sec) 
Heartbeat CPU  0 instructions:   21000002 cycles:   10739899 heartbeat IPC: 1.85004 cumulative IPC: 1.95533 (Simulation time: 0 hr 2 min 26 sec) 
Heartbeat CPU  3 instructions:   24000000 cycles:   10759470 heartbeat IPC: 1.79374 cumulative IPC: 2.23059 (Simulation time: 0 hr 2 min 27 sec) 
Heartbeat CPU  1 instructions:   21000001 cycles:   10897280 heartbeat IPC: 1.84986 cumulative IPC: 1.92709 (Simulation time: 0 hr 2 min 28 sec) 
Heartbeat CPU  2 instructions:   23000000 cycles:   11059834 heartbeat IPC: 1.67543 cumulative IPC: 2.07960 (Simulation time: 0 hr 2 min 31 sec) 
Heartbeat CPU  0 instructions:   22000001 cycles:   11240531 heartbeat IPC: 1.99747 cumulative IPC: 1.95720 (Simulation time: 0 hr 2 min 33 sec) 
Heartbeat CPU  3 instructions:   25000001 cycles:   11315735 heartbeat IPC: 1.79771 cumulative IPC: 2.20931 (Simulation time: 0 hr 2 min 34 sec) 
Heartbeat CPU  1 instructions:   22000000 cycles:   11422915 heartbeat IPC: 1.90246 cumulative IPC: 1.92595 (Simulation time: 0 hr 2 min 35 sec) 
Heartbeat CPU  2 instructions:   24000000 cycles:   11647926 heartbeat IPC: 1.70041 cumulative IPC: 2.06045 (Simulation time: 0 hr 2 min 38 sec) 
Heartbeat CPU  0 instructions:   23000003 cycles:   11794789 heartbeat IPC: 1.80422 cumulative IPC: 1.95001 (Simulation time: 0 hr 2 min 40 sec) 
Heartbeat CPU  3 instructions:   26000000 cycles:   11874454 heartbeat IPC: 1.78981 cumulative IPC: 2.18957 (Simulation time: 0 hr 2 min 41 sec) 
Heartbeat CPU  1 instructions:   23000001 cycles:   11943719 heartbeat IPC: 1.92011 cumulative IPC: 1.92570 (Simulation time: 0 hr 2 min 42 sec) 
Heartbeat CPU  2 instructions:   25000002 cycles:   12252734 heartbeat IPC: 1.65342 cumulative IPC: 2.04036 (Simulation time: 0 hr 2 min 46 sec) 
Heartbeat CPU  0 instructions:   24000000 cycles:   12320927 heartbeat IPC: 1.90064 cumulative IPC: 1.94791 (Simulation time: 0 hr 2 min 47 sec) 
Heartbeat CPU  3 instructions:   27000003 cycles:   12396086 heartbeat IPC: 1.91707 cumulative IPC: 2.17811 (Simulation time: 0 hr 2 min 48 sec) 
Heartbeat CPU  1 instructions:   24000000 cycles:   12490492 heartbeat IPC: 1.82891 cumulative IPC: 1.92146 (Simulation time: 0 hr 2 min 49 sec) 
Heartbeat CPU  2 instructions:   26000002 cycles:   12834464 heartbeat IPC: 1.71901 cumulative IPC: 2.02580 (Simulation time: 0 hr 2 min 53 sec) 
Heartbeat CPU  0 instructions:   25000003 cycles:   12852901 heartbeat IPC: 1.87980 cumulative IPC: 1.94509 (Simulation time: 0 hr 2 min 54 sec) 
Heartbeat CPU  3 instructions:   28000000 cycles:   12916718 heartbeat IPC: 1.92074 cumulative IPC: 2.16773 (Simulation time: 0 hr 2 min 55 sec) 
Heartbeat CPU  1 instructions:   25000001 cycles:   13052947 heartbeat IPC: 1.77792 cumulative IPC: 1.91528 (Simulation time: 0 hr 2 min 56 sec) 
Heartbeat CPU  0 instructions:   26000002 cycles:   13375425 heartbeat IPC: 1.91379 cumulative IPC: 1.94386 (Simulation time: 0 hr 3 min 1 sec) 
Heartbeat CPU  2 instructions:   27000000 cycles:   13399689 heartbeat IPC: 1.76920 cumulative IPC: 2.01497 (Simulation time: 0 hr 3 min 1 sec) 
Heartbeat CPU  3 instructions:   29000000 cycles:   13422155 heartbeat IPC: 1.97849 cumulative IPC: 2.16061 (Simulation time: 0 hr 3 min 1 sec) 
Heartbeat CPU  1 instructions:   26000000 cycles:   13567374 heartbeat IPC: 1.94391 cumulative IPC: 1.91636 (Simulation time: 0 hr 3 min 3 sec) 
Heartbeat CPU  0 instructions:   27000001 cycles:   13929319 heartbeat IPC: 1.80540 cumulative IPC: 1.93836 (Simulation time: 0 hr 3 min 8 sec) 
Heartbeat CPU  3 instructions:   30000003 cycles:   13953547 heartbeat IPC: 1.88186 cumulative IPC: 2.14999 (Simulation time: 0 hr 3 min 8 sec) 
Heartbeat CPU  2 instructions:   28000000 cycles:   13979261 heartbeat IPC: 1.72541 cumulative IPC: 2.00297 (Simulation time: 0 hr 3 min 8 sec) 
Heartbeat CPU  1 instructions:   27000000 cycles:   14114317 heartbeat IPC: 1.82834 cumulative IPC: 1.91295 (Simulation time: 0 hr 3 min 10 sec) 
Heartbeat CPU  0 instructions:   28000000 cycles:   14432352 heartbeat IPC: 1.98794 cumulative IPC: 1.94009 (Simulation time: 0 hr 3 min 14 sec) 
Heartbeat CPU  3 instructions:   31000002 cycles:   14483738 heartbeat IPC: 1.88611 cumulative IPC: 2.14033 (Simulation time: 0 hr 3 min 15 sec) 
Heartbeat CPU  2 instructions:   29000001 cycles:   14578979 heartbeat IPC: 1.66745 cumulative IPC: 1.98917 (Simulation time: 0 hr 3 min 16 sec) 
Heartbeat CPU  1 instructions:   28000000 cycles:   14638326 heartbeat IPC: 1.90836 cumulative IPC: 1.91279 (Simulation time: 0 hr 3 min 17 sec) 
Heartbeat CPU  0 instructions:   29000003 cycles:   14955803 heartbeat IPC: 1.91040 cumulative IPC: 1.93905 (Simulation time: 0 hr 3 min 21 sec) 
Heartbeat CPU  3 instructions:   32000000 cycles:   15000549 heartbeat IPC: 1.93494 cumulative IPC: 2.13326 (Simulation time: 0 hr 3 min 22 sec) 
Heartbeat CPU  1 instructions:   29000000 cycles:   15156506 heartbeat IPC: 1.92983 cumulative IPC: 1.91337 (Simulation time: 0 hr 3 min 24 sec) 
Heartbeat CPU  2 instructions:   30000003 cycles:   15159239 heartbeat IPC: 1.72337 cumulative IPC: 1.97899 (Simulation time: 0 hr 3 min 24 sec) 
Heartbeat CPU  0 instructions:   30000002 cycles:   15504326 heartbeat IPC: 1.82308 cumulative IPC: 1.93494 (Simulation time: 0 hr 3 min 28 sec) 
Heartbeat CPU  3 instructions:   33000003 cycles:   15529170 heartbeat IPC: 1.89172 cumulative IPC: 2.12503 (Simulation time: 0 hr 3 min 29 sec) 
Heartbeat CPU  1 instructions:   30000000 cycles:   15701978 heartbeat IPC: 1.83327 cumulative IPC: 1.91059 (Simulation time: 0 hr 3 min 31 sec) 
Heartbeat CPU  2 instructions:   31000003 cycles:   15743147 heartbeat IPC: 1.71260 cumulative IPC: 1.96911 (Simulation time: 0 hr 3 min 31 sec) 
Heartbeat CPU  0 instructions:   31000000 cycles:   16008381 heartbeat IPC: 1.98391 cumulative IPC: 1.93649 (Simulation time: 0 hr 3 min 35 sec) 
Heartbeat CPU  3 instructions:   34000003 cycles:   16077513 heartbeat IPC: 1.82368 cumulative IPC: 2.11476 (Simulation time: 0 hr 3 min 36 sec) 
Heartbeat CPU  1 instructions:   31000001 cycles:   16219613 heartbeat IPC: 1.93187 cumulative IPC: 1.91127 (Simulation time: 0 hr 3 min 38 sec) 
Heartbeat CPU  2 instructions:   32000000 cycles:   16302068 heartbeat IPC: 1.78916 cumulative IPC: 1.96294 (Simulation time: 0 hr 3 min 39 sec) 
Heartbeat CPU  0 instructions:   32000000 cycles:   16530711 heartbeat IPC: 1.91450 cumulative IPC: 1.93579 (Simulation time: 0 hr 3 min 42 sec) 
Heartbeat CPU  3 instructions:   35000000 cycles:   16602776 heartbeat IPC: 1.90380 cumulative IPC: 2.10808 (Simulation time: 0 hr 3 min 43 sec) 
Heartbeat CPU  1 instructions:   32000000 cycles:   16744840 heartbeat IPC: 1.90394 cumulative IPC: 1.91104 (Simulation time: 0 hr 3 min 44 sec) 
Heartbeat CPU  2 instructions:   33000000 cycles:   16881754 heartbeat IPC: 1.72507 cumulative IPC: 1.95477 (Simulation time: 0 hr 3 min 46 sec) 
Heartbeat CPU  0 instructions:   33000003 cycles:   17069547 heartbeat IPC: 1.85586 cumulative IPC: 1.93327 (Simulation time: 0 hr 3 min 49 sec) 
Heartbeat CPU  3 instructions:   36000000 cycles:   17170157 heartbeat IPC: 1.76248 cumulative IPC: 2.09666 (Simulation time: 0 hr 3 min 50 sec) 
Heartbeat CPU  1 instructions:   33000001 cycles:   17265062 heartbeat IPC: 1.92226 cumulative IPC: 1.91137 (Simulation time: 0 hr 3 min 51 sec) 
Heartbeat CPU  2 instructions:   34000001 cycles:   17448019 heartbeat IPC: 1.76596 cumulative IPC: 1.94865 (Simulation time: 0 hr 3 min 53 sec) 
Heartbeat CPU  0 instructions:   34000002 cycles:   17601498 heartbeat IPC: 1.87987 cumulative IPC: 1.93165 (Simulation time: 0 hr 3 min 55 sec) 
Heartbeat CPU  1 instructions:   34000002 cycles:   17790989 heartbeat IPC: 1.90141 cumulative IPC: 1.91108 (Simulation time: 0 hr 3 min 57 sec) 
Heartbeat CPU  3 instructions:   37000001 cycles:   17817311 heartbeat IPC: 1.54523 cumulative IPC: 2.07663 (Simulation time: 0 hr 3 min 58 sec) 
Heartbeat CPU  2 instructions:   35000003 cycles:   18000660 heartbeat IPC: 1.80950 cumulative IPC: 1.94437 (Simulation time: 0 hr 4 min 0 sec) 
Heartbeat CPU  0 instructions:   35000001 cycles:   18160522 heartbeat IPC: 1.78883 cumulative IPC: 1.92726 (Simulation time: 0 hr 4 min 2 sec) 
Heartbeat CPU  3 instructions:   38000001 cycles:   18383270 heartbeat IPC: 1.76691 cumulative IPC: 2.06710 (Simulation time: 0 hr 4 min 4 sec) 
Heartbeat CPU  1 instructions:   35000000 cycles:   18383707 heartbeat IPC: 1.68714 cumulative IPC: 1.90386 (Simulation time: 0 hr 4 min 4 sec) 
Heartbeat CPU  2 instructions:   36000000 cycles:   18565461 heartbeat IPC: 1.77053 cumulative IPC: 1.93908 (Simulation time: 0 hr 4 min 7 sec) 
Heartbeat CPU  0 instructions:   36000000 cycles:   18856888 heartbeat IPC: 1.43603 cumulative IPC: 1.90912 (Simulation time: 0 hr 4 min 10 sec) 
Heartbeat CPU  1 instructions:   36000000 cycles:   18935828 heartbeat IPC: 1.81120 cumulative IPC: 1.90116 (Simulation time: 0 hr 4 min 11 sec) 
Heartbeat CPU  3 instructions:   39000003 cycles:   19067634 heartbeat IPC: 1.46121 cumulative IPC: 2.04535 (Simulation time: 0 hr 4 min 12 sec) 
Heartbeat CPU  2 instructions:   37000003 cycles:   19149697 heartbeat IPC: 1.71164 cumulative IPC: 1.93215 (Simulation time: 0 hr 4 min 13 sec) 
Heartbeat CPU  0 instructions:   37000001 cycles:   19404808 heartbeat IPC: 1.82509 cumulative IPC: 1.90674 (Simulation time: 0 hr 4 min 16 sec) 
Heartbeat CPU  1 instructions:   37000000 cycles:   19447649 heartbeat IPC: 1.95381 cumulative IPC: 1.90254 (Simulation time: 0 hr 4 min 17 sec) 
Heartbeat CPU  3 instructions:   40000000 cycles:   19611588 heartbeat IPC: 1.83839 cumulative IPC: 2.03961 (Simulation time: 0 hr 4 min 19 sec) 
Heartbeat CPU  2 instructions:   38000001 cycles:   19808174 heartbeat IPC: 1.51865 cumulative IPC: 1.91840 (Simulation time: 0 hr 4 min 21 sec) 
Heartbeat CPU  0 instructions:   38000001 cycles:   19968611 heartbeat IPC: 1.77367 cumulative IPC: 1.90299 (Simulation time: 0 hr 4 min 23 sec) 
Heartbeat CPU  1 instructions:   38000001 cycles:   20030130 heartbeat IPC: 1.71680 cumulative IPC: 1.89714 (Simulation time: 0 hr 4 min 24 sec) 
Heartbeat CPU  3 instructions:   41000001 cycles:   20152177 heartbeat IPC: 1.84984 cumulative IPC: 2.03452 (Simulation time: 0 hr 4 min 26 sec) 
Heartbeat CPU  2 instructions:   39000000 cycles:   20395381 heartbeat IPC: 1.70298 cumulative IPC: 1.91220 (Simulation time: 0 hr 4 min 29 sec) 
Heartbeat CPU  0 instructions:   39000001 cycles:   20494422 heartbeat IPC: 1.90182 cumulative IPC: 1.90296 (Simulation time: 0 hr 4 min 30 sec) 
Heartbeat CPU  1 instructions:   39000003 cycles:   20574947 heartbeat IPC: 1.83548 cumulative IPC: 1.89551 (Simulation time: 0 hr 4 min 31 sec) 
Heartbeat CPU  3 instructions:   42000003 cycles:   20662791 heartbeat IPC: 1.95843 cumulative IPC: 2.03264 (Simulation time: 0 hr 4 min 32 sec) 
Heartbeat CPU  2 instructions:   40000000 cycles:   20936532 heartbeat IPC: 1.84791 cumulative IPC: 1.91054 (Simulation time: 0 hr 4 min 36 sec) 
Heartbeat CPU  0 instructions:   40000000 cycles:   21056714 heartbeat IPC: 1.77843 cumulative IPC: 1.89963 (Simulation time: 0 hr 4 min 38 sec) 
Heartbeat CPU  1 instructions:   40000000 cycles:   21085244 heartbeat IPC: 1.95964 cumulative IPC: 1.89706 (Simulation time: 0 hr 4 min 38 sec) 
Heartbeat CPU  3 instructions:   43000001 cycles:   21187730 heartbeat IPC: 1.90498 cumulative IPC: 2.02948 (Simulation time: 0 hr 4 min 39 sec) 
Heartbeat CPU  2 instructions:   41000002 cycles:   21488035 heartbeat IPC: 1.81323 cumulative IPC: 1.90804 (Simulation time: 0 hr 4 min 43 sec) 
Heartbeat CPU  0 instructions:   41000002 cycles:   21560866 heartbeat IPC: 1.98353 cumulative IPC: 1.90159 (Simulation time: 0 hr 4 min 44 sec) 
Heartbeat CPU  1 instructions:   41000002 cycles:   21596140 heartbeat IPC: 1.95735 cumulative IPC: 1.89849 (Simulation time: 0 hr 4 min 45 sec) 
Heartbeat CPU  3 instructions:   44000000 cycles:   21696031 heartbeat IPC: 1.96734 cumulative IPC: 2.02802 (Simulation time: 0 hr 4 min 46 sec) 
Heartbeat CPU  2 instructions:   42000000 cycles:   22054734 heartbeat IPC: 1.76460 cumulative IPC: 1.90435 (Simulation time: 0 hr 4 min 51 sec) 
Heartbeat CPU  0 instructions:   42000000 cycles:   22080144 heartbeat IPC: 1.92575 cumulative IPC: 1.90216 (Simulation time: 0 hr 4 min 51 sec) 
Heartbeat CPU  1 instructions:   42000000 cycles:   22137284 heartbeat IPC: 1.84793 cumulative IPC: 1.89725 (Simulation time: 0 hr 4 min 52 sec) 
Heartbeat CPU  3 instructions:   45000000 cycles:   22264269 heartbeat IPC: 1.75983 cumulative IPC: 2.02118 (Simulation time: 0 hr 4 min 54 sec) 
Heartbeat CPU  0 instructions:   43000001 cycles:   22596315 heartbeat IPC: 1.93734 cumulative IPC: 1.90297 (Simulation time: 0 hr 4 min 58 sec) 
Heartbeat CPU  2 instructions:   43000000 cycles:   22646218 heartbeat IPC: 1.69066 cumulative IPC: 1.89877 (Simulation time: 0 hr 4 min 58 sec) 
Heartbeat CPU  1 instructions:   43000000 cycles:   22660449 heartbeat IPC: 1.91144 cumulative IPC: 1.89758 (Simulation time: 0 hr 4 min 59 sec) 
Heartbeat CPU  3 instructions:   46000003 cycles:   22806290 heartbeat IPC: 1.84495 cumulative IPC: 2.01699 (Simulation time: 0 hr 5 min 1 sec) 
Heartbeat CPU  0 instructions:   44000000 cycles:   23121014 heartbeat IPC: 1.90585 cumulative IPC: 1.90303 (Simulation time: 0 hr 5 min 5 sec) 
Heartbeat CPU  1 instructions:   44000000 cycles:   23178092 heartbeat IPC: 1.93183 cumulative IPC: 1.89834 (Simulation time: 0 hr 5 min 6 sec) 
Heartbeat CPU  2 instructions:   44000000 cycles:   23209217 heartbeat IPC: 1.77620 cumulative IPC: 1.89580 (Simulation time: 0 hr 5 min 6 sec) 
Heartbeat CPU  3 instructions:   47000002 cycles:   23339917 heartbeat IPC: 1.87397 cumulative IPC: 2.01372 (Simulation time: 0 hr 5 min 7 sec) 
Heartbeat CPU  0 instructions:   45000002 cycles:   23647514 heartbeat IPC: 1.89934 cumulative IPC: 1.90295 (Simulation time: 0 hr 5 min 12 sec) 
Heartbeat CPU  1 instructions:   45000000 cycles:   23701525 heartbeat IPC: 1.91046 cumulative IPC: 1.89861 (Simulation time: 0 hr 5 min 12 sec) 
Heartbeat CPU  2 instructions:   45000000 cycles:   23780487 heartbeat IPC: 1.75049 cumulative IPC: 1.89231 (Simulation time: 0 hr 5 min 13 sec) 
Heartbeat CPU  3 instructions:   48000000 cycles:   23853324 heartbeat IPC: 1.94777 cumulative IPC: 2.01230 (Simulation time: 0 hr 5 min 14 sec) 
Heartbeat CPU  0 instructions:   46000001 cycles:   24172389 heartbeat IPC: 1.90521 cumulative IPC: 1.90300 (Simulation time: 0 hr 5 min 18 sec) 
Heartbeat CPU  1 instructions:   46000000 cycles:   24242458 heartbeat IPC: 1.84866 cumulative IPC: 1.89750 (Simulation time: 0 hr 5 min 19 sec) 
Heartbeat CPU  2 instructions:   46000003 cycles:   24361917 heartbeat IPC: 1.71990 cumulative IPC: 1.88819 (Simulation time: 0 hr 5 min 21 sec) 
Heartbeat CPU  3 instructions:   49000000 cycles:   24395323 heartbeat IPC: 1.84502 cumulative IPC: 2.00858 (Simulation time: 0 hr 5 min 21 sec) 
Heartbeat CPU  0 instructions:   47000001 cycles:   24679158 heartbeat IPC: 1.97329 cumulative IPC: 1.90444 (Simulation time: 0 hr 5 min 25 sec) 
Heartbeat CPU  1 instructions:   47000000 cycles:   24752842 heartbeat IPC: 1.95931 cumulative IPC: 1.89877 (Simulation time: 0 hr 5 min 26 sec) 
Heartbeat CPU  3 instructions:   50000001 cycles:   24899778 heartbeat IPC: 1.98234 cumulative IPC: 2.00805 (Simulation time: 0 hr 5 min 28 sec) 
Heartbeat CPU  2 instructions:   47000000 cycles:   24932993 heartbeat IPC: 1.75108 cumulative IPC: 1.88505 (Simulation time: 0 hr 5 min 28 sec) 
Heartbeat CPU  0 instructions:   48000000 cycles:   25204945 heartbeat IPC: 1.90191 cumulative IPC: 1.90439 (Simulation time: 0 hr 5 min 32 sec) 
Heartbeat CPU  1 instructions:   48000000 cycles:   25281812 heartbeat IPC: 1.89047 cumulative IPC: 1.89860 (Simulation time: 0 hr 5 min 33 sec) 
Heartbeat CPU  3 instructions:   51000003 cycles:   25413320 heartbeat IPC: 1.94726 cumulative IPC: 0.03935 (Simulation time: 0 hr 5 min 35 sec) 
Heartbeat CPU  2 instructions:   48000000 cycles:   25508184 heartbeat IPC: 1.73855 cumulative IPC: 1.88175 (Simulation time: 0 hr 5 min 36 sec) 
Heartbeat CPU  0 instructions:   49000002 cycles:   25720705 heartbeat IPC: 1.93889 cumulative IPC: 1.90508 (Simulation time: 0 hr 5 min 39 sec) 
Heartbeat CPU  1 instructions:   49000000 cycles:   25801761 heartbeat IPC: 1.92327 cumulative IPC: 1.89910 (Simulation time: 0 hr 5 min 40 sec) 
Heartbeat CPU  3 instructions:   52000000 cycles:   25895098 heartbeat IPC: 2.07564 cumulative IPC: 0.07723 (Simulation time: 0 hr 5 min 41 sec) 
Heartbeat CPU  2 instructions:   49000000 cycles:   26081969 heartbeat IPC: 1.74281 cumulative IPC: 1.87869 (Simulation time: 0 hr 5 min 44 sec) 
Heartbeat CPU  0 instructions:   50000001 cycles:   26251562 heartbeat IPC: 1.88374 cumulative IPC: 1.90465 (Simulation time: 0 hr 5 min 46 sec) 
Heartbeat CPU  1 instructions:   50000000 cycles:   26299293 heartbeat IPC: 2.00992 cumulative IPC: 1.90119 (Simulation time: 0 hr 5 min 47 sec) 
Heartbeat CPU  3 instructions:   53000003 cycles:   26389467 heartbeat IPC: 2.02279 cumulative IPC: 0.11368 (Simulation time: 0 hr 5 min 48 sec) 
Heartbeat CPU  2 instructions:   50000003 cycles:   26626144 heartbeat IPC: 1.83765 cumulative IPC: 1.87785 (Simulation time: 0 hr 5 min 51 sec) 

Warmup complete CPU  0 instructions:   50711435 cycles:   26626144 (Simulation time: 0 hr 5 min 51 sec) 
Warmup complete CPU  1 instructions:   50601928 cycles:   26626143 (Simulation time: 0 hr 5 min 51 sec) 
Warmup complete CPU  2 instructions:   50000003 cycles:   26626144 (Simulation time: 0 hr 5 min 51 sec) 
Warmup complete CPU  3 instructions:   53456625 cycles:   26626144 (Simulation time: 0 hr 5 min 51 sec) 

Heartbeat CPU  0 instructions:   51000002 cycles:   27968285 heartbeat IPC: 0.58251 cumulative IPC: 0.21500 (Simulation time: 0 hr 5 min 54 sec) 
Heartbeat CPU  1 instructions:   51000001 cycles:   28485048 heartbeat IPC: 0.45751 cumulative IPC: 0.21414 (Simulation time: 0 hr 5 min 55 sec) 
Heartbeat CPU  3 instructions:   54000000 cycles:   29188635 heartbeat IPC: 0.35725 cumulative IPC: 0.21205 (Simulation time: 0 hr 5 min 56 sec) 
Heartbeat CPU  2 instructions:   51000002 cycles:   32286675 heartbeat IPC: 0.17666 cumulative IPC: 0.17666 (Simulation time: 0 hr 6 min 2 sec) 
Heartbeat CPU  0 instructions:   52000000 cycles:   32844250 heartbeat IPC: 0.20509 cumulative IPC: 0.20723 (Simulation time: 0 hr 6 min 3 sec) 
Heartbeat CPU  1 instructions:   52000000 cycles:   33233921 heartbeat IPC: 0.21058 cumulative IPC: 0.21158 (Simulation time: 0 hr 6 min 4 sec) 
Heartbeat CPU  3 instructions:   55000000 cycles:   33920839 heartbeat IPC: 0.21132 cumulative IPC: 0.21157 (Simulation time: 0 hr 6 min 5 sec) 
Heartbeat CPU  0 instructions:   53000003 cycles:   37490564 heartbeat IPC: 0.21523 cumulative IPC: 0.21065 (Simulation time: 0 hr 6 min 12 sec) 
Heartbeat CPU  1 instructions:   53000002 cycles:   38017361 heartbeat IPC: 0.20905 cumulative IPC: 0.21052 (Simulation time: 0 hr 6 min 13 sec) 
Heartbeat CPU  2 instructions:   52000000 cycles:   38068221 heartbeat IPC: 0.17296 cumulative IPC: 0.17479 (Simulation time: 0 hr 6 min 13 sec) 
Heartbeat CPU  3 instructions:   56000000 cycles:   38594918 heartbeat IPC: 0.21395 cumulative IPC: 0.21250 (Simulation time: 0 hr 6 min 14 sec) 
Heartbeat CPU  0 instructions:   54000002 cycles:   42190886 heartbeat IPC: 0.21275 cumulative IPC: 0.21128 (Simulation time: 0 hr 6 min 21 sec) 
Heartbeat CPU  1 instructions:   54000002 cycles:   42695351 heartbeat IPC: 0.21377 cumulative IPC: 0.21146 (Simulation time: 0 hr 6 min 22 sec) 
Heartbeat CPU  3 instructions:   57000000 cycles:   43283707 heartbeat IPC: 0.21327 cumulative IPC: 0.21272 (Simulation time: 0 hr 6 min 23 sec) 
Heartbeat CPU  2 instructions:   53000002 cycles:   43657593 heartbeat IPC: 0.17891 cumulative IPC: 0.17614 (Simulation time: 0 hr 6 min 24 sec) 
Heartbeat CPU  0 instructions:   55000000 cycles:   46906510 heartbeat IPC: 0.21206 cumulative IPC: 0.21146 (Simulation time: 0 hr 6 min 30 sec) 
Heartbeat CPU  1 instructions:   55000000 cycles:   47378239 heartbeat IPC: 0.21354 cumulative IPC: 0.21193 (Simulation time: 0 hr 6 min 31 sec) 
Heartbeat CPU  3 instructions:   58000003 cycles:   47992890 heartbeat IPC: 0.21235 cumulative IPC: 0.21264 (Simulation time: 0 hr 6 min 32 sec) 
Heartbeat CPU  2 instructions:   54000000 cycles:   49422828 heartbeat IPC: 0.17345 cumulative IPC: 0.17546 (Simulation time: 0 hr 6 min 35 sec) 
Heartbeat CPU  0 instructions:   56000000 cycles:   51582283 heartbeat IPC: 0.21387 cumulative IPC: 0.21191 (Simulation time: 0 hr 6 min 39 sec) 
Heartbeat CPU  1 instructions:   56000000 cycles:   52103169 heartbeat IPC: 0.21164 cumulative IPC: 0.21188 (Simulation time: 0 hr 6 min 40 sec) 
Heartbeat CPU  3 instructions:   59000002 cycles:   52612811 heartbeat IPC: 0.21645 cumulative IPC: 0.21332 (Simulation time: 0 hr 6 min 41 sec) 
Heartbeat CPU  2 instructions:   55000001 cycles:   55157195 heartbeat IPC: 0.17439 cumulative IPC: 0.17525 (Simulation time: 0 hr 6 min 46 sec) 
Heartbeat CPU  0 instructions:   57000002 cycles:   56203861 heartbeat IPC: 0.21638 cumulative IPC: 0.21261 (Simulation time: 0 hr 6 min 48 sec) 
Heartbeat CPU  1 instructions:   57000003 cycles:   56773794 heartbeat IPC: 0.21410 cumulative IPC: 0.21222 (Simulation time: 0 hr 6 min 49 sec) 
Heartbeat CPU  3 instructions:   60000000 cycles:   57516768 heartbeat IPC: 0.20392 cumulative IPC: 0.21182 (Simulation time: 0 hr 6 min 51 sec) 
Heartbeat CPU  2 instructions:   56000000 cycles:   60732526 heartbeat IPC: 0.17936 cumulative IPC: 0.17592 (Simulation time: 0 hr 6 min 57 sec) 
Heartbeat CPU  0 instructions:   58000000 cycles:   60892397 heartbeat IPC: 0.21329 cumulative IPC: 0.21270 (Simulation time: 0 hr 6 min 57 sec) 
Heartbeat CPU  1 instructions:   58000002 cycles:   61490326 heartbeat IPC: 0.21202 cumulative IPC: 0.21220 (Simulation time: 0 hr 6 min 58 sec) 
Heartbeat CPU  3 instructions:   61000001 cycles:   62392943 heartbeat IPC: 0.20508 cumulative IPC: 0.21090 (Simulation time: 0 hr 7 min 0 sec) 
Heartbeat CPU  0 instructions:   59000001 cycles:   65293497 heartbeat IPC: 0.22722 cumulative IPC: 0.21436 (Simulation time: 0 hr 7 min 6 sec) 
Heartbeat CPU  1 instructions:   59000002 cycles:   66156771 heartbeat IPC: 0.21430 cumulative IPC: 0.21244 (Simulation time: 0 hr 7 min 8 sec) 
Heartbeat CPU  2 instructions:   57000003 cycles:   66442815 heartbeat IPC: 0.17512 cumulative IPC: 0.17581 (Simulation time: 0 hr 7 min 8 sec) 
Heartbeat CPU  3 instructions:   62000001 cycles:   67145637 heartbeat IPC: 0.21041 cumulative IPC: 0.21085 (Simulation time: 0 hr 7 min 10 sec) 
Heartbeat CPU  0 instructions:   60000000 cycles:   69198485 heartbeat IPC: 0.25608 cumulative IPC: 0.21818 (Simulation time: 0 hr 7 min 14 sec) 
Heartbeat CPU  1 instructions:   60000000 cycles:   71172706 heartbeat IPC: 0.19936 cumulative IPC: 0.21097 (Simulation time: 0 hr 7 min 18 sec) 
Heartbeat CPU  3 instructions:   63000000 cycles:   71898599 heartbeat IPC: 0.21039 cumulative IPC: 0.21080 (Simulation time: 0 hr 7 min 19 sec) 
Heartbeat CPU  2 instructions:   58000003 cycles:   72088839 heartbeat IPC: 0.17712 cumulative IPC: 0.17597 (Simulation time: 0 hr 7 min 19 sec) 
Heartbeat CPU  0 instructions:   61000000 cycles:   73930044 heartbeat IPC: 0.21135 cumulative IPC: 0.21750 (Simulation time: 0 hr 7 min 23 sec) 
Heartbeat CPU  1 instructions:   61000001 cycles:   76183381 heartbeat IPC: 0.19957 cumulative IPC: 0.20982 (Simulation time: 0 hr 7 min 27 sec) 
Heartbeat CPU  3 instructions:   64000000 cycles:   76560218 heartbeat IPC: 0.21452 cumulative IPC: 0.21115 (Simulation time: 0 hr 7 min 28 sec) 
Heartbeat CPU  2 instructions:   59000001 cycles:   77690961 heartbeat IPC: 0.17850 cumulative IPC: 0.17625 (Simulation time: 0 hr 7 min 30 sec) 
Heartbeat CPU  0 instructions:   62000000 cycles:   78567343 heartbeat IPC: 0.21564 cumulative IPC: 0.21733 (Simulation time: 0 hr 7 min 32 sec) 
Heartbeat CPU  1 instructions:   62000003 cycles:   80914832 heartbeat IPC: 0.21135 cumulative IPC: 0.20995 (Simulation time: 0 hr 7 min 36 sec) 
Heartbeat CPU  3 instructions:   65000000 cycles:   81325931 heartbeat IPC: 0.20983 cumulative IPC: 0.21103 (Simulation time: 0 hr 7 min 37 sec) 
Heartbeat CPU  2 instructions:   60000000 cycles:   83277792 heartbeat IPC: 0.17899 cumulative IPC: 0.17652 (Simulation time: 0 hr 7 min 41 sec) 
Heartbeat CPU  0 instructions:   63000003 cycles:   83335804 heartbeat IPC: 0.20971 cumulative IPC: 0.21669 (Simulation time: 0 hr 7 min 41 sec) 
Heartbeat CPU  1 instructions:   63000001 cycles:   85758823 heartbeat IPC: 0.20644 cumulative IPC: 0.20967 (Simulation time: 0 hr 7 min 46 sec) 
Heartbeat CPU  3 instructions:   66000000 cycles:   86048189 heartbeat IPC: 0.21176 cumulative IPC: 0.21109 (Simulation time: 0 hr 7 min 46 sec) 
Heartbeat CPU  0 instructions:   64000000 cycles:   88045592 heartbeat IPC: 0.21232 cumulative IPC: 0.21636 (Simulation time: 0 hr 7 min 50 sec) 
Heartbeat CPU  2 instructions:   61000000 cycles:   88931029 heartbeat IPC: 0.17689 cumulative IPC: 0.17655 (Simulation time: 0 hr 7 min 52 sec) 
Heartbeat CPU  1 instructions:   64000000 cycles:   90395104 heartbeat IPC: 0.21569 cumulative IPC: 0.21010 (Simulation time: 0 hr 7 min 55 sec) 
Heartbeat CPU  3 instructions:   67000003 cycles:   90787137 heartbeat IPC: 0.21102 cumulative IPC: 0.21108 (Simulation time: 0 hr 7 min 55 sec) 
Heartbeat CPU  1 instructions:   65000000 cycles:   92124024 heartbeat IPC: 0.57840 cumulative IPC: 0.21982 (Simulation time: 0 hr 7 min 59 sec) 
Heartbeat CPU  0 instructions:   65000003 cycles:   92656215 heartbeat IPC: 0.21689 cumulative IPC: 0.21639 (Simulation time: 0 hr 8 min 0 sec) 
Heartbeat CPU  1 instructions:   66000002 cycles:   93035323 heartbeat IPC: 1.09734 cumulative IPC: 0.23187 (Simulation time: 0 hr 8 min 2 sec) 
Heartbeat CPU  1 instructions:   67000001 cycles:   93957606 heartbeat IPC: 1.08426 cumulative IPC: 0.24354 (Simulation time: 0 hr 8 min 4 sec) 
Heartbeat CPU  1 instructions:   68000000 cycles:   94522852 heartbeat IPC: 1.76914 cumulative IPC: 0.25624 (Simulation time: 0 hr 8 min 7 sec) 
Heartbeat CPU  2 instructions:   62000003 cycles:   94650645 heartbeat IPC: 0.17484 cumulative IPC: 0.17641 (Simulation time: 0 hr 8 min 7 sec) 
Heartbeat CPU  1 instructions:   69000002 cycles:   95048487 heartbeat IPC: 1.90246 cumulative IPC: 0.26889 (Simulation time: 0 hr 8 min 9 sec) 
Heartbeat CPU  3 instructions:   68000000 cycles:   95445348 heartbeat IPC: 0.21467 cumulative IPC: 0.21133 (Simulation time: 0 hr 8 min 10 sec) 
Heartbeat CPU  1 instructions:   70000000 cycles:   95596625 heartbeat IPC: 1.82435 cumulative IPC: 0.28125 (Simulation time: 0 hr 8 min 11 sec) 
Heartbeat CPU  1 instructions:   71000002 cycles:   96140010 heartbeat IPC: 1.84032 cumulative IPC: 0.29344 (Simulation time: 0 hr 8 min 13 sec) 
Heartbeat CPU  1 instructions:   72000000 cycles:   96706842 heartbeat IPC: 1.76419 cumulative IPC: 0.30533 (Simulation time: 0 hr 8 min 15 sec) 
Heartbeat CPU  0 instructions:   66000001 cycles:   97208704 heartbeat IPC: 0.21966 cumulative IPC: 0.21661 (Simulation time: 0 hr 8 min 17 sec) 
Heartbeat CPU  1 instructions:   73000003 cycles:   97287684 heartbeat IPC: 1.72164 cumulative IPC: 0.31698 (Simulation time: 0 hr 8 min 17 sec) 
Heartbeat CPU  1 instructions:   74000000 cycles:   97905634 heartbeat IPC: 1.61825 cumulative IPC: 0.32826 (Simulation time: 0 hr 8 min 20 sec) 
Heartbeat CPU  1 instructions:   75000003 cycles:   98542249 heartbeat IPC: 1.57081 cumulative IPC: 0.33926 (Simulation time: 0 hr 8 min 22 sec) 
Heartbeat CPU  1 instructions:   76000000 cycles:   99103232 heartbeat IPC: 1.78258 cumulative IPC: 0.35043 (Simulation time: 0 hr 8 min 24 sec) 
Heartbeat CPU  1 instructions:   77000003 cycles:   99668029 heartbeat IPC: 1.77055 cumulative IPC: 0.36141 (Simulation time: 0 hr 8 min 26 sec) 
Heartbeat CPU  3 instructions:   69000003 cycles:  100085978 heartbeat IPC: 0.21549 cumulative IPC: 0.21159 (Simulation time: 0 hr 8 min 28 sec) 
Heartbeat CPU  1 instructions:   78000003 cycles:  100424594 heartbeat IPC: 1.32176 cumulative IPC: 0.37126 (Simulation time: 0 hr 8 min 29 sec) 
Heartbeat CPU  2 instructions:   63000003 cycles:  100513448 heartbeat IPC: 0.17057 cumulative IPC: 0.17594 (Simulation time: 0 hr 8 min 29 sec) 
Heartbeat CPU  1 instructions:   79000003 cycles:  101076178 heartbeat IPC: 1.53472 cumulative IPC: 0.38144 (Simulation time: 0 hr 8 min 31 sec) 
Heartbeat CPU  1 instructions:   80000000 cycles:  101721797 heartbeat IPC: 1.54890 cumulative IPC: 0.39148 (Simulation time: 0 hr 8 min 34 sec) 
Heartbeat CPU  0 instructions:   67000000 cycles:  101800775 heartbeat IPC: 0.21777 cumulative IPC: 0.21668 (Simulation time: 0 hr 8 min 34 sec) 
Heartbeat CPU  1 instructions:   81000003 cycles:  102385147 heartbeat IPC: 1.50750 cumulative IPC: 0.40125 (Simulation time: 0 hr 8 min 36 sec) 
Heartbeat CPU  1 instructions:   82000002 cycles:  102998357 heartbeat IPC: 1.63076 cumulative IPC: 0.41112 (Simulation time: 0 hr 8 min 39 sec) 
Heartbeat CPU  1 instructions:   83000002 cycles:  103664713 heartbeat IPC: 1.50070 cumulative IPC: 0.42054 (Simulation time: 0 hr 8 min 41 sec) 
Heartbeat CPU  2 instructions:   64000000 cycles:  104062115 heartbeat IPC: 0.28180 cumulative IPC: 0.18079 (Simulation time: 0 hr 8 min 43 sec) 
Heartbeat CPU  1 instructions:   84000000 cycles:  104286992 heartbeat IPC: 1.60699 cumulative IPC: 0.43005 (Simulation time: 0 hr 8 min 44 sec) 
Heartbeat CPU  3 instructions:   70000003 cycles:  104721108 heartbeat IPC: 0.21574 cumulative IPC: 0.21184 (Simulation time: 0 hr 8 min 46 sec) 
Heartbeat CPU  1 instructions:   85000001 cycles:  104938048 heartbeat IPC: 1.53597 cumulative IPC: 0.43924 (Simulation time: 0 hr 8 min 46 sec) 
Heartbeat CPU  1 instructions:   86000000 cycles:  105459817 heartbeat IPC: 1.91656 cumulative IPC: 0.44902 (Simulation time: 0 hr 8 min 49 sec) 
Heartbeat CPU  2 instructions:   65000000 cycles:  105864724 heartbeat IPC: 0.55475 cumulative IPC: 0.18930 (Simulation time: 0 hr 8 min 51 sec) 
Heartbeat CPU  1 instructions:   87000002 cycles:  106002725 heartbeat IPC: 1.84194 cumulative IPC: 0.45855 (Simulation time: 0 hr 8 min 51 sec) 
Heartbeat CPU  0 instructions:   68000000 cycles:  106433864 heartbeat IPC: 0.21584 cumulative IPC: 0.21663 (Simulation time: 0 hr 8 min 53 sec) 
Heartbeat CPU  2 instructions:   66000002 cycles:  107487745 heartbeat IPC: 0.61614 cumulative IPC: 0.19787 (Simulation time: 0 hr 8 min 56 sec) 
Heartbeat CPU  1 instructions:   88000000 cycles:  108111928 heartbeat IPC: 0.47411 cumulative IPC: 0.45895 (Simulation time: 0 hr 8 min 57 sec) 
Heartbeat CPU  2 instructions:   67000000 cycles:  109005483 heartbeat IPC: 0.65887 cumulative IPC: 0.20636 (Simulation time: 0 hr 9 min 0 sec) 
Heartbeat CPU  3 instructions:   71000002 cycles:  109387014 heartbeat IPC: 0.21432 cumulative IPC: 0.21198 (Simulation time: 0 hr 9 min 1 sec) 
Heartbeat CPU  2 instructions:   68000000 cycles:  110441677 heartbeat IPC: 0.69628 cumulative IPC: 0.21476 (Simulation time: 0 hr 9 min 3 sec) 
Heartbeat CPU  0 instructions:   69000003 cycles:  111027222 heartbeat IPC: 0.21771 cumulative IPC: 0.21669 (Simulation time: 0 hr 9 min 5 sec) 
Heartbeat CPU  2 instructions:   69000000 cycles:  111837101 heartbeat IPC: 0.71663 cumulative IPC: 0.22298 (Simulation time: 0 hr 9 min 7 sec) 
Heartbeat CPU  1 instructions:   89000003 cycles:  112825469 heartbeat IPC: 0.21216 cumulative IPC: 0.44546 (Simulation time: 0 hr 9 min 9 sec) 
Heartbeat CPU  2 instructions:   70000002 cycles:  113287187 heartbeat IPC: 0.68962 cumulative IPC: 0.23078 (Simulation time: 0 hr 9 min 11 sec) 
Heartbeat CPU  3 instructions:   72000000 cycles:  114005966 heartbeat IPC: 0.21650 cumulative IPC: 0.21222 (Simulation time: 0 hr 9 min 13 sec) 
Heartbeat CPU  2 instructions:   71000002 cycles:  114580624 heartbeat IPC: 0.77313 cumulative IPC: 0.23876 (Simulation time: 0 hr 9 min 14 sec) 
Heartbeat CPU  2 instructions:   72000000 cycles:  115521138 heartbeat IPC: 1.06325 cumulative IPC: 0.24748 (Simulation time: 0 hr 9 min 17 sec) 
Heartbeat CPU  0 instructions:   70000003 cycles:  115802250 heartbeat IPC: 0.20942 cumulative IPC: 0.21630 (Simulation time: 0 hr 9 min 18 sec) 
Heartbeat CPU  2 instructions:   73000000 cycles:  116531233 heartbeat IPC: 0.99001 cumulative IPC: 0.25583 (Simulation time: 0 hr 9 min 20 sec) 
Heartbeat CPU  2 instructions:   74000001 cycles:  117512319 heartbeat IPC: 1.01928 cumulative IPC: 0.26407 (Simulation time: 0 hr 9 min 23 sec) 
Heartbeat CPU  1 instructions:   90000001 cycles:  117534400 heartbeat IPC: 0.21236 cumulative IPC: 0.43338 (Simulation time: 0 hr 9 min 23 sec) 
Heartbeat CPU  2 instructions:   75000000 cycles:  118455780 heartbeat IPC: 1.05993 cumulative IPC: 0.27224 (Simulation time: 0 hr 9 min 26 sec) 
Heartbeat CPU  3 instructions:   73000003 cycles:  118741277 heartbeat IPC: 0.21118 cumulative IPC: 0.21216 (Simulation time: 0 hr 9 min 27 sec) 
Heartbeat CPU  2 instructions:   76000000 cycles:  119419255 heartbeat IPC: 1.03791 cumulative IPC: 0.28019 (Simulation time: 0 hr 9 min 29 sec) 
Heartbeat CPU  0 instructions:   71000003 cycles:  119554814 heartbeat IPC: 0.26648 cumulative IPC: 0.21832 (Simulation time: 0 hr 9 min 29 sec) 
Heartbeat CPU  0 instructions:   72000000 cycles:  120252895 heartbeat IPC: 1.43249 cumulative IPC: 0.22738 (Simulation time: 0 hr 9 min 32 sec) 
Heartbeat CPU  2 instructions:   77000003 cycles:  120892400 heartbeat IPC: 0.67882 cumulative IPC: 0.28642 (Simulation time: 0 hr 9 min 35 sec) 
Heartbeat CPU  0 instructions:   73000001 cycles:  120939978 heartbeat IPC: 1.45543 cumulative IPC: 0.23632 (Simulation time: 0 hr 9 min 35 sec) 
Heartbeat CPU  0 instructions:   74000001 cycles:  121472197 heartbeat IPC: 1.87893 cumulative IPC: 0.24554 (Simulation time: 0 hr 9 min 38 sec) 
Heartbeat CPU  0 instructions:   75000001 cycles:  122022176 heartbeat IPC: 1.81825 cumulative IPC: 0.25461 (Simulation time: 0 hr 9 min 40 sec) 
Heartbeat CPU  1 instructions:   91000000 cycles:  122218860 heartbeat IPC: 0.21347 cumulative IPC: 0.42261 (Simulation time: 0 hr 9 min 41 sec) 
Heartbeat CPU  2 instructions:   78000000 cycles:  122470280 heartbeat IPC: 0.63376 cumulative IPC: 0.29214 (Simulation time: 0 hr 9 min 42 sec) 
Heartbeat CPU  0 instructions:   76000000 cycles:  122613099 heartbeat IPC: 1.69227 cumulative IPC: 0.26346 (Simulation time: 0 hr 9 min 43 sec) 
Heartbeat CPU  3 instructions:   74000001 cycles:  123541201 heartbeat IPC: 0.20834 cumulative IPC: 0.21197 (Simulation time: 0 hr 9 min 45 sec) 
Heartbeat CPU  2 instructions:   79000001 cycles:  123886476 heartbeat IPC: 0.70612 cumulative IPC: 0.29817 (Simulation time: 0 hr 9 min 46 sec) 
Heartbeat CPU  2 instructions:   80000000 cycles:  125245885 heartbeat IPC: 0.73561 cumulative IPC: 0.30420 (Simulation time: 0 hr 9 min 50 sec) 
Heartbeat CPU  2 instructions:   81000003 cycles:  126703167 heartbeat IPC: 0.68621 cumulative IPC: 0.30976 (Simulation time: 0 hr 9 min 54 sec) 
Heartbeat CPU  1 instructions:   92000000 cycles:  126835213 heartbeat IPC: 0.21662 cumulative IPC: 0.41312 (Simulation time: 0 hr 9 min 54 sec) 
Heartbeat CPU  0 instructions:   77000001 cycles:  127217771 heartbeat IPC: 0.21717 cumulative IPC: 0.26134 (Simulation time: 0 hr 9 min 55 sec) 
Heartbeat CPU  2 instructions:   82000000 cycles:  128111814 heartbeat IPC: 0.70990 cumulative IPC: 0.31532 (Simulation time: 0 hr 9 min 57 sec) 
Heartbeat CPU  3 instructions:   75000002 cycles:  128331585 heartbeat IPC: 0.20875 cumulative IPC: 0.21182 (Simulation time: 0 hr 9 min 58 sec) 
Heartbeat CPU  2 instructions:   83000001 cycles:  129596797 heartbeat IPC: 0.67341 cumulative IPC: 0.32048 (Simulation time: 0 hr 10 min 1 sec) 
Heartbeat CPU  2 instructions:   84000000 cycles:  131121206 heartbeat IPC: 0.65599 cumulative IPC: 0.32537 (Simulation time: 0 hr 10 min 5 sec) 
Heartbeat CPU  1 instructions:   93000000 cycles:  131537748 heartbeat IPC: 0.21265 cumulative IPC: 0.40413 (Simulation time: 0 hr 10 min 6 sec) 
Heartbeat CPU  0 instructions:   78000002 cycles:  131827307 heartbeat IPC: 0.21694 cumulative IPC: 0.25939 (Simulation time: 0 hr 10 min 7 sec) 
Heartbeat CPU  2 instructions:   85000000 cycles:  132602002 heartbeat IPC: 0.67531 cumulative IPC: 0.33026 (Simulation time: 0 hr 10 min 9 sec) 
Heartbeat CPU  3 instructions:   76000000 cycles:  132996820 heartbeat IPC: 0.21435 cumulative IPC: 0.21193 (Simulation time: 0 hr 10 min 10 sec) 
Heartbeat CPU  2 instructions:   86000001 cycles:  133985187 heartbeat IPC: 0.72297 cumulative IPC: 0.33532 (Simulation time: 0 hr 10 min 12 sec) 
Heartbeat CPU  2 instructions:   87000001 cycles:  135389547 heartbeat IPC: 0.71207 cumulative IPC: 0.34019 (Simulation time: 0 hr 10 min 16 sec) 
Heartbeat CPU  1 instructions:   94000000 cycles:  136285015 heartbeat IPC: 0.21065 cumulative IPC: 0.39576 (Simulation time: 0 hr 10 min 18 sec) 
Heartbeat CPU  0 instructions:   79000002 cycles:  136370057 heartbeat IPC: 0.22013 cumulative IPC: 0.25777 (Simulation time: 0 hr 10 min 19 sec) 
Heartbeat CPU  3 instructions:   77000003 cycles:  137640688 heartbeat IPC: 0.21534 cumulative IPC: 0.21207 (Simulation time: 0 hr 10 min 21 sec) 
Heartbeat CPU  2 instructions:   88000000 cycles:  138545385 heartbeat IPC: 0.31687 cumulative IPC: 0.33953 (Simulation time: 0 hr 10 min 23 sec) 
Heartbeat CPU  0 instructions:   80000000 cycles:  140917956 heartbeat IPC: 0.21988 cumulative IPC: 0.25626 (Simulation time: 0 hr 10 min 27 sec) 
Heartbeat CPU  1 instructions:   95000002 cycles:  141024879 heartbeat IPC: 0.21098 cumulative IPC: 0.38810 (Simulation time: 0 hr 10 min 27 sec) 
Heartbeat CPU  3 instructions:   78000002 cycles:  142381106 heartbeat IPC: 0.21095 cumulative IPC: 0.21203 (Simulation time: 0 hr 10 min 30 sec) 
Heartbeat CPU  2 instructions:   89000003 cycles:  142877764 heartbeat IPC: 0.23082 cumulative IPC: 0.33548 (Simulation time: 0 hr 10 min 31 sec) 
Heartbeat CPU  2 instructions:   90000000 cycles:  144821264 heartbeat IPC: 0.51453 cumulative IPC: 0.33842 (Simulation time: 0 hr 10 min 36 sec) 
Heartbeat CPU  0 instructions:   81000002 cycles:  145578849 heartbeat IPC: 0.21455 cumulative IPC: 0.25463 (Simulation time: 0 hr 10 min 38 sec) 
Heartbeat CPU  1 instructions:   96000000 cycles:  145645553 heartbeat IPC: 0.21642 cumulative IPC: 0.38143 (Simulation time: 0 hr 10 min 38 sec) 
Heartbeat CPU  2 instructions:   91000000 cycles:  146682633 heartbeat IPC: 0.53724 cumulative IPC: 0.34151 (Simulation time: 0 hr 10 min 40 sec) 
Heartbeat CPU  3 instructions:   79000001 cycles:  146991641 heartbeat IPC: 0.21689 cumulative IPC: 0.21222 (Simulation time: 0 hr 10 min 41 sec) 
Heartbeat CPU  2 instructions:   92000000 cycles:  148519263 heartbeat IPC: 0.54448 cumulative IPC: 0.34456 (Simulation time: 0 hr 10 min 45 sec) 
Heartbeat CPU  0 instructions:   82000003 cycles:  150172473 heartbeat IPC: 0.21769 cumulative IPC: 0.25325 (Simulation time: 0 hr 10 min 48 sec) 
Heartbeat CPU  1 instructions:   97000000 cycles:  150351504 heartbeat IPC: 0.21250 cumulative IPC: 0.37501 (Simulation time: 0 hr 10 min 49 sec) 
Heartbeat CPU  3 instructions:   80000000 cycles:  151646034 heartbeat IPC: 0.21485 cumulative IPC: 0.21231 (Simulation time: 0 hr 10 min 51 sec) 
Heartbeat CPU  2 instructions:   93000001 cycles:  153047284 heartbeat IPC: 0.22085 cumulative IPC: 0.34013 (Simulation time: 0 hr 10 min 54 sec) 
Heartbeat CPU  0 instructions:   83000000 cycles:  154615742 heartbeat IPC: 0.22506 cumulative IPC: 0.25227 (Simulation time: 0 hr 10 min 57 sec) 
Heartbeat CPU  1 instructions:   98000003 cycles:  155069152 heartbeat IPC: 0.21197 cumulative IPC: 0.36902 (Simulation time: 0 hr 10 min 58 sec) 
Heartbeat CPU  3 instructions:   81000000 cycles:  156266167 heartbeat IPC: 0.21644 cumulative IPC: 0.21246 (Simulation time: 0 hr 11 min 0 sec) 
Heartbeat CPU  2 instructions:   94000000 cycles:  158759270 heartbeat IPC: 0.17507 cumulative IPC: 0.33300 (Simulation time: 0 hr 11 min 5 sec) 
Heartbeat CPU  0 instructions:   84000000 cycles:  159263124 heartbeat IPC: 0.21517 cumulative IPC: 0.25097 (Simulation time: 0 hr 11 min 6 sec) 
Heartbeat CPU  1 instructions:   99000000 cycles:  159793675 heartbeat IPC: 0.21166 cumulative IPC: 0.36344 (Simulation time: 0 hr 11 min 7 sec) 
Heartbeat CPU  3 instructions:   82000003 cycles:  160980377 heartbeat IPC: 0.21213 cumulative IPC: 0.21245 (Simulation time: 0 hr 11 min 9 sec) 
Heartbeat CPU  0 instructions:   85000002 cycles:  163892280 heartbeat IPC: 0.21602 cumulative IPC: 0.24980 (Simulation time: 0 hr 11 min 15 sec) 
*** Reached end of trace for Core: 1 Repeating trace: /data3/STREAMING/traces/streaming_phase2_core1.trace.xz
Heartbeat CPU  1 instructions:  100000000 cycles:  164506172 heartbeat IPC: 0.21220 cumulative IPC: 0.35827 (Simulation time: 0 hr 11 min 16 sec) 
Heartbeat CPU  2 instructions:   95000000 cycles:  164543671 heartbeat IPC: 0.17288 cumulative IPC: 0.32628 (Simulation time: 0 hr 11 min 16 sec) 
Heartbeat CPU  3 instructions:   83000003 cycles:  165649781 heartbeat IPC: 0.21416 cumulative IPC: 0.21251 (Simulation time: 0 hr 11 min 19 sec) 
Heartbeat CPU  0 instructions:   86000000 cycles:  168517495 heartbeat IPC: 0.21621 cumulative IPC: 0.24870 (Simulation time: 0 hr 11 min 24 sec) 
Heartbeat CPU  1 instructions:  101000001 cycles:  169157733 heartbeat IPC: 0.21498 cumulative IPC: 0.35359 (Simulation time: 0 hr 11 min 26 sec) 
Heartbeat CPU  2 instructions:   96000000 cycles:  170304231 heartbeat IPC: 0.17359 cumulative IPC: 0.32016 (Simulation time: 0 hr 11 min 28 sec) 
Heartbeat CPU  3 instructions:   84000000 cycles:  170335252 heartbeat IPC: 0.21343 cumulative IPC: 0.21254 (Simulation time: 0 hr 11 min 28 sec) 
Heartbeat CPU  0 instructions:   87000003 cycles:  173201129 heartbeat IPC: 0.21351 cumulative IPC: 0.24758 (Simulation time: 0 hr 11 min 34 sec) 
Heartbeat CPU  1 instructions:  102000001 cycles:  173714208 heartbeat IPC: 0.21947 cumulative IPC: 0.34944 (Simulation time: 0 hr 11 min 35 sec) 
Heartbeat CPU  3 instructions:   85000002 cycles:  174958120 heartbeat IPC: 0.21632 cumulative IPC: 0.21265 (Simulation time: 0 hr 11 min 37 sec) 
Heartbeat CPU  2 instructions:   97000001 cycles:  176083047 heartbeat IPC: 0.17305 cumulative IPC: 0.31447 (Simulation time: 0 hr 11 min 39 sec) 
Heartbeat CPU  0 instructions:   88000000 cycles:  177609477 heartbeat IPC: 0.22684 cumulative IPC: 0.24697 (Simulation time: 0 hr 11 min 42 sec) 
Heartbeat CPU  1 instructions:  103000001 cycles:  178275314 heartbeat IPC: 0.21925 cumulative IPC: 0.34552 (Simulation time: 0 hr 11 min 44 sec) 
Heartbeat CPU  3 instructions:   86000001 cycles:  179558532 heartbeat IPC: 0.21737 cumulative IPC: 0.21280 (Simulation time: 0 hr 11 min 46 sec) 
Heartbeat CPU  2 instructions:   98000000 cycles:  182001184 heartbeat IPC: 0.16897 cumulative IPC: 0.30893 (Simulation time: 0 hr 11 min 51 sec) 
Heartbeat CPU  0 instructions:   89000000 cycles:  182316456 heartbeat IPC: 0.21245 cumulative IPC: 0.24593 (Simulation time: 0 hr 11 min 52 sec) 
Heartbeat CPU  1 instructions:  104000000 cycles:  182891651 heartbeat IPC: 0.21662 cumulative IPC: 0.34171 (Simulation time: 0 hr 11 min 53 sec) 
Heartbeat CPU  3 instructions:   87000001 cycles:  184149598 heartbeat IPC: 0.21781 cumulative IPC: 0.21294 (Simulation time: 0 hr 11 min 55 sec) 
Heartbeat CPU  0 instructions:   90000003 cycles:  187018357 heartbeat IPC: 0.21268 cumulative IPC: 0.24495 (Simulation time: 0 hr 12 min 1 sec) 
Heartbeat CPU  1 instructions:  105000000 cycles:  187475538 heartbeat IPC: 0.21816 cumulative IPC: 0.33819 (Simulation time: 0 hr 12 min 2 sec) 
Heartbeat CPU  2 instructions:   99000001 cycles:  187835135 heartbeat IPC: 0.17141 cumulative IPC: 0.30395 (Simulation time: 0 hr 12 min 3 sec) 
Heartbeat CPU  3 instructions:   88000000 cycles:  188820022 heartbeat IPC: 0.21411 cumulative IPC: 0.21298 (Simulation time: 0 hr 12 min 5 sec) 
Heartbeat CPU  0 instructions:   91000003 cycles:  191713057 heartbeat IPC: 0.21301 cumulative IPC: 0.24404 (Simulation time: 0 hr 12 min 10 sec) 
Heartbeat CPU  1 instructions:  106000002 cycles:  192172829 heartbeat IPC: 0.21289 cumulative IPC: 0.33464 (Simulation time: 0 hr 12 min 11 sec) 
*** Reached end of trace for Core: 2 Repeating trace: /data3/STREAMING/traces/streaming_phase2_core2.trace.xz
Heartbeat CPU  2 instructions:  100000000 cycles:  193391219 heartbeat IPC: 0.17998 cumulative IPC: 0.29982 (Simulation time: 0 hr 12 min 14 sec) 
Heartbeat CPU  3 instructions:   89000003 cycles:  193578232 heartbeat IPC: 0.21016 cumulative IPC: 0.21290 (Simulation time: 0 hr 12 min 14 sec) 
Heartbeat CPU  2 instructions:  101000001 cycles:  194918161 heartbeat IPC: 0.65490 cumulative IPC: 0.30304 (Simulation time: 0 hr 12 min 17 sec) 
Heartbeat CPU  0 instructions:   92000000 cycles:  196320897 heartbeat IPC: 0.21702 cumulative IPC: 0.24331 (Simulation time: 0 hr 12 min 21 sec) 
Heartbeat CPU  2 instructions:  102000002 cycles:  196322456 heartbeat IPC: 0.71210 cumulative IPC: 0.30643 (Simulation time: 0 hr 12 min 21 sec) 
Heartbeat CPU  1 instructions:  107000002 cycles:  196885438 heartbeat IPC: 0.21220 cumulative IPC: 0.33125 (Simulation time: 0 hr 12 min 23 sec) 
Heartbeat CPU  2 instructions:  103000002 cycles:  197681786 heartbeat IPC: 0.73566 cumulative IPC: 0.30984 (Simulation time: 0 hr 12 min 25 sec) 
Heartbeat CPU  3 instructions:   90000001 cycles:  198292854 heartbeat IPC: 0.21211 cumulative IPC: 0.21287 (Simulation time: 0 hr 12 min 26 sec) 
Heartbeat CPU  2 instructions:  104000000 cycles:  199126808 heartbeat IPC: 0.69203 cumulative IPC: 0.31304 (Simulation time: 0 hr 12 min 29 sec) 
Heartbeat CPU  2 instructions:  105000000 cycles:  200631116 heartbeat IPC: 0.66476 cumulative IPC: 0.31608 (Simulation time: 0 hr 12 min 32 sec) 
Heartbeat CPU  0 instructions:   93000001 cycles:  200937550 heartbeat IPC: 0.21661 cumulative IPC: 0.24260 (Simulation time: 0 hr 12 min 33 sec) 
Heartbeat CPU  1 instructions:  108000000 cycles:  201611322 heartbeat IPC: 0.21160 cumulative IPC: 0.32802 (Simulation time: 0 hr 12 min 35 sec) 
Heartbeat CPU  2 instructions:  106000000 cycles:  202073394 heartbeat IPC: 0.69335 cumulative IPC: 0.31918 (Simulation time: 0 hr 12 min 36 sec) 
Heartbeat CPU  3 instructions:   91000002 cycles:  202896589 heartbeat IPC: 0.21722 cumulative IPC: 0.21299 (Simulation time: 0 hr 12 min 38 sec) 
Heartbeat CPU  2 instructions:  107000000 cycles:  203561715 heartbeat IPC: 0.67190 cumulative IPC: 0.32215 (Simulation time: 0 hr 12 min 40 sec) 
Heartbeat CPU  2 instructions:  108000000 cycles:  205014657 heartbeat IPC: 0.68826 cumulative IPC: 0.32513 (Simulation time: 0 hr 12 min 44 sec) 
Heartbeat CPU  0 instructions:   94000003 cycles:  205507431 heartbeat IPC: 0.21882 cumulative IPC: 0.24200 (Simulation time: 0 hr 12 min 45 sec) 
Heartbeat CPU  1 instructions:  109000003 cycles:  206240990 heartbeat IPC: 0.21600 cumulative IPC: 0.32513 (Simulation time: 0 hr 12 min 47 sec) 
Heartbeat CPU  2 instructions:  109000000 cycles:  206506686 heartbeat IPC: 0.67023 cumulative IPC: 0.32800 (Simulation time: 0 hr 12 min 48 sec) 
Heartbeat CPU  3 instructions:   92000000 cycles:  207436102 heartbeat IPC: 0.22029 cumulative IPC: 0.21317 (Simulation time: 0 hr 12 min 50 sec) 
Heartbeat CPU  0 instructions:   95000002 cycles:  210212807 heartbeat IPC: 0.21252 cumulative IPC: 0.24124 (Simulation time: 0 hr 12 min 56 sec) 
Heartbeat CPU  2 instructions:  110000002 cycles:  210341881 heartbeat IPC: 0.26074 cumulative IPC: 0.32659 (Simulation time: 0 hr 12 min 56 sec) 
Heartbeat CPU  1 instructions:  110000002 cycles:  210991935 heartbeat IPC: 0.21048 cumulative IPC: 0.32218 (Simulation time: 0 hr 12 min 57 sec) 
Heartbeat CPU  3 instructions:   93000000 cycles:  212075160 heartbeat IPC: 0.21556 cumulative IPC: 0.21323 (Simulation time: 0 hr 12 min 59 sec) 
Heartbeat CPU  0 instructions:   96000000 cycles:  214892611 heartbeat IPC: 0.21368 cumulative IPC: 0.24056 (Simulation time: 0 hr 13 min 5 sec) 
Heartbeat CPU  1 instructions:  111000003 cycles:  215658687 heartbeat IPC: 0.21428 cumulative IPC: 0.31951 (Simulation time: 0 hr 13 min 6 sec) 
Heartbeat CPU  2 instructions:  111000002 cycles:  216162283 heartbeat IPC: 0.17181 cumulative IPC: 0.32184 (Simulation time: 0 hr 13 min 7 sec) 
Heartbeat CPU  3 instructions:   94000002 cycles:  216816160 heartbeat IPC: 0.21093 cumulative IPC: 0.21317 (Simulation time: 0 hr 13 min 9 sec) 
Heartbeat CPU  0 instructions:   97000000 cycles:  219598733 heartbeat IPC: 0.21249 cumulative IPC: 0.23987 (Simulation time: 0 hr 13 min 14 sec) 
Heartbeat CPU  1 instructions:  112000000 cycles:  220398689 heartbeat IPC: 0.21097 cumulative IPC: 0.31686 (Simulation time: 0 hr 13 min 16 sec) 
Heartbeat CPU  3 instructions:   95000000 cycles:  221562932 heartbeat IPC: 0.21067 cumulative IPC: 0.21311 (Simulation time: 0 hr 13 min 18 sec) 
Heartbeat CPU  2 instructions:  112000000 cycles:  221792391 heartbeat IPC: 0.17762 cumulative IPC: 0.31768 (Simulation time: 0 hr 13 min 18 sec) 
Heartbeat CPU  0 instructions:   98000000 cycles:  224287445 heartbeat IPC: 0.21328 cumulative IPC: 0.23924 (Simulation time: 0 hr 13 min 23 sec) 
Heartbeat CPU  1 instructions:  113000003 cycles:  225069354 heartbeat IPC: 0.21410 cumulative IPC: 0.31444 (Simulation time: 0 hr 13 min 25 sec) 
Heartbeat CPU  3 instructions:   96000000 cycles:  226203718 heartbeat IPC: 0.21548 cumulative IPC: 0.21317 (Simulation time: 0 hr 13 min 27 sec) 
Heartbeat CPU  2 instructions:  113000003 cycles:  227599276 heartbeat IPC: 0.17221 cumulative IPC: 0.31347 (Simulation time: 0 hr 13 min 30 sec) 
Heartbeat CPU  0 instructions:   99000000 cycles:  229014448 heartbeat IPC: 0.21155 cumulative IPC: 0.23859 (Simulation time: 0 hr 13 min 33 sec) 
Heartbeat CPU  1 instructions:  114000000 cycles:  229835348 heartbeat IPC: 0.20982 cumulative IPC: 0.31198 (Simulation time: 0 hr 13 min 34 sec) 
Heartbeat CPU  3 instructions:   97000000 cycles:  231156230 heartbeat IPC: 0.20192 cumulative IPC: 0.21289 (Simulation time: 0 hr 13 min 37 sec) 
Heartbeat CPU  2 instructions:  114000003 cycles:  233404843 heartbeat IPC: 0.17225 cumulative IPC: 0.30951 (Simulation time: 0 hr 13 min 41 sec) 
*** Reached end of trace for Core: 0 Repeating trace: /data3/STREAMING/traces/streaming_phase2_core0.trace.xz
Heartbeat CPU  0 instructions:  100000000 cycles:  233690002 heartbeat IPC: 0.21388 cumulative IPC: 0.23804 (Simulation time: 0 hr 13 min 42 sec) 
Heartbeat CPU  1 instructions:  115000001 cycles:  234558242 heartbeat IPC: 0.21173 cumulative IPC: 0.30971 (Simulation time: 0 hr 13 min 43 sec) 
Heartbeat CPU  3 instructions:   98000002 cycles:  235954911 heartbeat IPC: 0.20839 cumulative IPC: 0.21279 (Simulation time: 0 hr 13 min 46 sec) 
Heartbeat CPU  0 instructions:  101000002 cycles:  238323510 heartbeat IPC: 0.21582 cumulative IPC: 0.23755 (Simulation time: 0 hr 13 min 51 sec) 
Heartbeat CPU  2 instructions:  115000002 cycles:  239132731 heartbeat IPC: 0.17458 cumulative IPC: 0.30587 (Simulation time: 0 hr 13 min 52 sec) 
Heartbeat CPU  1 instructions:  116000000 cycles:  239186579 heartbeat IPC: 0.21606 cumulative IPC: 0.30767 (Simulation time: 0 hr 13 min 52 sec) 
Heartbeat CPU  3 instructions:   99000002 cycles:  240692577 heartbeat IPC: 0.21107 cumulative IPC: 0.21275 (Simulation time: 0 hr 13 min 55 sec) 
Heartbeat CPU  0 instructions:  102000000 cycles:  242795125 heartbeat IPC: 0.22363 cumulative IPC: 0.23726 (Simulation time: 0 hr 14 min 0 sec) 
Heartbeat CPU  1 instructions:  117000003 cycles:  244172072 heartbeat IPC: 0.20058 cumulative IPC: 0.30521 (Simulation time: 0 hr 14 min 2 sec) 
Heartbeat CPU  2 instructions:  116000000 cycles:  244879618 heartbeat IPC: 0.17401 cumulative IPC: 0.30240 (Simulation time: 0 hr 14 min 4 sec) 
*** Reached end of trace for Core: 3 Repeating trace: /data3/STREAMING/traces/streaming_phase2_core3.trace.xz
Heartbeat CPU  3 instructions:  100000000 cycles:  245222447 heartbeat IPC: 0.22076 cumulative IPC: 0.21292 (Simulation time: 0 hr 14 min 4 sec) 
Heartbeat CPU  3 instructions:  101000000 cycles:  245948127 heartbeat IPC: 1.37802 cumulative IPC: 0.21677 (Simulation time: 0 hr 14 min 7 sec) 
Heartbeat CPU  3 instructions:  102000000 cycles:  246527427 heartbeat IPC: 1.72622 cumulative IPC: 0.22075 (Simulation time: 0 hr 14 min 10 sec) 
Heartbeat CPU  3 instructions:  103000003 cycles:  247071854 heartbeat IPC: 1.83680 cumulative IPC: 0.22474 (Simulation time: 0 hr 14 min 12 sec) 
Heartbeat CPU  0 instructions:  103000002 cycles:  247380491 heartbeat IPC: 0.21809 cumulative IPC: 0.23686 (Simulation time: 0 hr 14 min 13 sec) 
Heartbeat CPU  3 instructions:  104000000 cycles:  247620027 heartbeat IPC: 1.82424 cumulative IPC: 0.22871 (Simulation time: 0 hr 14 min 14 sec) 
Heartbeat CPU  3 instructions:  105000001 cycles:  248192774 heartbeat IPC: 1.74597 cumulative IPC: 0.23263 (Simulation time: 0 hr 14 min 16 sec) 
Heartbeat CPU  3 instructions:  106000000 cycles:  248738693 heartbeat IPC: 1.83177 cumulative IPC: 0.23656 (Simulation time: 0 hr 14 min 18 sec) 
Heartbeat CPU  1 instructions:  118000001 cycles:  248976519 heartbeat IPC: 0.20814 cumulative IPC: 0.30312 (Simulation time: 0 hr 14 min 19 sec) 
Heartbeat CPU  3 instructions:  107000001 cycles:  249261629 heartbeat IPC: 1.91228 cumulative IPC: 0.24050 (Simulation time: 0 hr 14 min 20 sec) 
Heartbeat CPU  3 instructions:  108000000 cycles:  249803812 heartbeat IPC: 1.84439 cumulative IPC: 0.24439 (Simulation time: 0 hr 14 min 23 sec) 
Heartbeat CPU  3 instructions:  109000003 cycles:  250341755 heartbeat IPC: 1.85894 cumulative IPC: 0.24828 (Simulation time: 0 hr 14 min 25 sec) 
Heartbeat CPU  2 instructions:  117000003 cycles:  250629150 heartbeat IPC: 0.17393 cumulative IPC: 0.29910 (Simulation time: 0 hr 14 min 26 sec) 
Heartbeat CPU  0 instructions:  104000000 cycles:  252013304 heartbeat IPC: 0.21585 cumulative IPC: 0.23643 (Simulation time: 0 hr 14 min 29 sec) 
Heartbeat CPU  3 instructions:  110000001 cycles:  253207055 heartbeat IPC: 0.34900 cumulative IPC: 0.24955 (Simulation time: 0 hr 14 min 31 sec) 
Heartbeat CPU  1 instructions:  119000001 cycles:  253710223 heartbeat IPC: 0.21125 cumulative IPC: 0.30120 (Simulation time: 0 hr 14 min 32 sec) 
Heartbeat CPU  2 instructions:  118000002 cycles:  256493361 heartbeat IPC: 0.17053 cumulative IPC: 0.29582 (Simulation time: 0 hr 14 min 38 sec) 
Heartbeat CPU  0 instructions:  105000003 cycles:  256680138 heartbeat IPC: 0.21428 cumulative IPC: 0.23598 (Simulation time: 0 hr 14 min 38 sec) 
Heartbeat CPU  3 instructions:  111000002 cycles:  257940982 heartbeat IPC: 0.21124 cumulative IPC: 0.24877 (Simulation time: 0 hr 14 min 41 sec) 
Heartbeat CPU  1 instructions:  120000000 cycles:  258300166 heartbeat IPC: 0.21787 cumulative IPC: 0.29955 (Simulation time: 0 hr 14 min 41 sec) 
Heartbeat CPU  0 instructions:  106000000 cycles:  261200372 heartbeat IPC: 0.22123 cumulative IPC: 0.23570 (Simulation time: 0 hr 14 min 47 sec) 
Heartbeat CPU  2 instructions:  119000001 cycles:  262321063 heartbeat IPC: 0.17159 cumulative IPC: 0.29275 (Simulation time: 0 hr 14 min 49 sec) 
Heartbeat CPU  3 instructions:  112000000 cycles:  262648645 heartbeat IPC: 0.21242 cumulative IPC: 0.24804 (Simulation time: 0 hr 14 min 50 sec) 
Heartbeat CPU  1 instructions:  121000001 cycles:  262863636 heartbeat IPC: 0.21913 cumulative IPC: 0.29800 (Simulation time: 0 hr 14 min 50 sec) 
Heartbeat CPU  0 instructions:  107000001 cycles:  265779739 heartbeat IPC: 0.21837 cumulative IPC: 0.23537 (Simulation time: 0 hr 14 min 56 sec) 
Heartbeat CPU  3 instructions:  113000003 cycles:  267384060 heartbeat IPC: 0.21118 cumulative IPC: 0.24732 (Simulation time: 0 hr 14 min 59 sec) 
Heartbeat CPU  1 instructions:  122000001 cycles:  267586536 heartbeat IPC: 0.21173 cumulative IPC: 0.29631 (Simulation time: 0 hr 15 min 0 sec) 
Heartbeat CPU  2 instructions:  120000000 cycles:  268192626 heartbeat IPC: 0.17031 cumulative IPC: 0.28978 (Simulation time: 0 hr 15 min 1 sec) 
Heartbeat CPU  0 instructions:  108000000 cycles:  270356832 heartbeat IPC: 0.21848 cumulative IPC: 0.23505 (Simulation time: 0 hr 15 min 5 sec) 
Heartbeat CPU  3 instructions:  114000003 cycles:  272031153 heartbeat IPC: 0.21519 cumulative IPC: 0.24671 (Simulation time: 0 hr 15 min 8 sec) 
Heartbeat CPU  1 instructions:  123000000 cycles:  272304356 heartbeat IPC: 0.21196 cumulative IPC: 0.29469 (Simulation time: 0 hr 15 min 9 sec) 
Heartbeat CPU  2 instructions:  121000000 cycles:  273905354 heartbeat IPC: 0.17505 cumulative IPC: 0.28712 (Simulation time: 0 hr 15 min 12 sec) 
Heartbeat CPU  0 instructions:  109000003 cycles:  275117349 heartbeat IPC: 0.21006 cumulative IPC: 0.23457 (Simulation time: 0 hr 15 min 15 sec) 
Heartbeat CPU  3 instructions:  115000000 cycles:  276726526 heartbeat IPC: 0.21297 cumulative IPC: 0.24607 (Simulation time: 0 hr 15 min 18 sec) 
Heartbeat CPU  1 instructions:  124000000 cycles:  276992035 heartbeat IPC: 0.21333 cumulative IPC: 0.29316 (Simulation time: 0 hr 15 min 18 sec) 
Heartbeat CPU  0 instructions:  110000003 cycles:  279808006 heartbeat IPC: 0.21319 cumulative IPC: 0.23417 (Simulation time: 0 hr 15 min 24 sec) 
Heartbeat CPU  2 instructions:  122000000 cycles:  279858190 heartbeat IPC: 0.16799 cumulative IPC: 0.28432 (Simulation time: 0 hr 15 min 24 sec) 
Heartbeat CPU  1 instructions:  125000001 cycles:  281699065 heartbeat IPC: 0.21245 cumulative IPC: 0.29167 (Simulation time: 0 hr 15 min 27 sec) 
Heartbeat CPU  3 instructions:  116000000 cycles:  281749735 heartbeat IPC: 0.19908 cumulative IPC: 0.24515 (Simulation time: 0 hr 15 min 28 sec) 
Heartbeat CPU  0 instructions:  111000002 cycles:  284377679 heartbeat IPC: 0.21883 cumulative IPC: 0.23390 (Simulation time: 0 hr 15 min 33 sec) 
Heartbeat CPU  2 instructions:  123000003 cycles:  285719000 heartbeat IPC: 0.17063 cumulative IPC: 0.28175 (Simulation time: 0 hr 15 min 35 sec) 
Heartbeat CPU  1 instructions:  126000001 cycles:  286454261 heartbeat IPC: 0.21030 cumulative IPC: 0.29018 (Simulation time: 0 hr 15 min 37 sec) 
Heartbeat CPU  3 instructions:  117000003 cycles:  286683537 heartbeat IPC: 0.20268 cumulative IPC: 0.24434 (Simulation time: 0 hr 15 min 37 sec) 
Heartbeat CPU  0 instructions:  112000000 cycles:  289002414 heartbeat IPC: 0.21623 cumulative IPC: 0.23359 (Simulation time: 0 hr 15 min 42 sec) 
Heartbeat CPU  1 instructions:  127000001 cycles:  291125968 heartbeat IPC: 0.21405 cumulative IPC: 0.28884 (Simulation time: 0 hr 15 min 46 sec) 
Heartbeat CPU  3 instructions:  118000000 cycles:  291336948 heartbeat IPC: 0.21490 cumulative IPC: 0.24383 (Simulation time: 0 hr 15 min 46 sec) 
Heartbeat CPU  2 instructions:  124000000 cycles:  291500814 heartbeat IPC: 0.17296 cumulative IPC: 0.27938 (Simulation time: 0 hr 15 min 47 sec) 
Heartbeat CPU  0 instructions:  113000001 cycles:  293638759 heartbeat IPC: 0.21569 cumulative IPC: 0.23328 (Simulation time: 0 hr 15 min 51 sec) 
Heartbeat CPU  1 instructions:  128000000 cycles:  295739789 heartbeat IPC: 0.21674 cumulative IPC: 0.28760 (Simulation time: 0 hr 15 min 55 sec) 
Heartbeat CPU  3 instructions:  119000001 cycles:  295991153 heartbeat IPC: 0.21486 cumulative IPC: 0.24333 (Simulation time: 0 hr 15 min 56 sec) 
Heartbeat CPU  2 instructions:  125000002 cycles:  297409063 heartbeat IPC: 0.16926 cumulative IPC: 0.27697 (Simulation time: 0 hr 15 min 59 sec) 
Heartbeat CPU  0 instructions:  114000001 cycles:  298419364 heartbeat IPC: 0.20918 cumulative IPC: 0.23286 (Simulation time: 0 hr 16 min 1 sec) 
Heartbeat CPU  1 instructions:  129000003 cycles:  300406739 heartbeat IPC: 0.21427 cumulative IPC: 0.28635 (Simulation time: 0 hr 16 min 4 sec) 
Heartbeat CPU  3 instructions:  120000000 cycles:  300710172 heartbeat IPC: 0.21191 cumulative IPC: 0.24278 (Simulation time: 0 hr 16 min 5 sec) 
Heartbeat CPU  0 instructions:  115000003 cycles:  303151307 heartbeat IPC: 0.21133 cumulative IPC: 0.23249 (Simulation time: 0 hr 16 min 10 sec) 
Heartbeat CPU  2 instructions:  126000003 cycles:  303322186 heartbeat IPC: 0.16912 cumulative IPC: 0.27467 (Simulation time: 0 hr 16 min 10 sec) 
Heartbeat CPU  1 instructions:  130000003 cycles:  305061407 heartbeat IPC: 0.21484 cumulative IPC: 0.28516 (Simulation time: 0 hr 16 min 14 sec) 
Heartbeat CPU  3 instructions:  121000000 cycles:  305298976 heartbeat IPC: 0.21792 cumulative IPC: 0.24238 (Simulation time: 0 hr 16 min 14 sec) 
Heartbeat CPU  0 instructions:  116000000 cycles:  307896872 heartbeat IPC: 0.21072 cumulative IPC: 0.23212 (Simulation time: 0 hr 16 min 19 sec) 
Heartbeat CPU  2 instructions:  127000000 cycles:  309132398 heartbeat IPC: 0.17211 cumulative IPC: 0.27256 (Simulation time: 0 hr 16 min 22 sec) 
Heartbeat CPU  1 instructions:  131000002 cycles:  309661724 heartbeat IPC: 0.21738 cumulative IPC: 0.28406 (Simulation time: 0 hr 16 min 23 sec) 
Heartbeat CPU  3 instructions:  122000001 cycles:  309961368 heartbeat IPC: 0.21448 cumulative IPC: 0.24192 (Simulation time: 0 hr 16 min 23 sec) 
Heartbeat CPU  0 instructions:  117000002 cycles:  312567564 heartbeat IPC: 0.21410 cumulative IPC: 0.23183 (Simulation time: 0 hr 16 min 29 sec) 
Heartbeat CPU  1 instructions:  132000000 cycles:  314382263 heartbeat IPC: 0.21184 cumulative IPC: 0.28287 (Simulation time: 0 hr 16 min 32 sec) 
Heartbeat CPU  3 instructions:  123000002 cycles:  314647274 heartbeat IPC: 0.21341 cumulative IPC: 0.24145 (Simulation time: 0 hr 16 min 33 sec) 
Heartbeat CPU  2 instructions:  128000000 cycles:  314959031 heartbeat IPC: 0.17163 cumulative IPC: 0.27052 (Simulation time: 0 hr 16 min 33 sec) 
Heartbeat CPU  0 instructions:  118000003 cycles:  317280840 heartbeat IPC: 0.21217 cumulative IPC: 0.23151 (Simulation time: 0 hr 16 min 38 sec) 
Heartbeat CPU  1 instructions:  133000003 cycles:  319010682 heartbeat IPC: 0.21606 cumulative IPC: 0.28181 (Simulation time: 0 hr 16 min 41 sec) 
Heartbeat CPU  3 instructions:  124000000 cycles:  319246285 heartbeat IPC: 0.21744 cumulative IPC: 0.24107 (Simulation time: 0 hr 16 min 42 sec) 
Heartbeat CPU  2 instructions:  129000002 cycles:  320857264 heartbeat IPC: 0.16954 cumulative IPC: 0.26850 (Simulation time: 0 hr 16 min 45 sec) 
Heartbeat CPU  0 instructions:  119000000 cycles:  322068117 heartbeat IPC: 0.20889 cumulative IPC: 0.23114 (Simulation time: 0 hr 16 min 47 sec) 
Heartbeat CPU  1 instructions:  134000003 cycles:  323725539 heartbeat IPC: 0.21210 cumulative IPC: 0.28071 (Simulation time: 0 hr 16 min 51 sec) 
Heartbeat CPU  3 instructions:  125000000 cycles:  323985534 heartbeat IPC: 0.21100 cumulative IPC: 0.24060 (Simulation time: 0 hr 16 min 51 sec) 
Heartbeat CPU  0 instructions:  120000000 cycles:  326685057 heartbeat IPC: 0.21659 cumulative IPC: 0.23092 (Simulation time: 0 hr 16 min 56 sec) 
Heartbeat CPU  2 instructions:  130000000 cycles:  326702268 heartbeat IPC: 0.17109 cumulative IPC: 0.26660 (Simulation time: 0 hr 16 min 56 sec) 
Heartbeat CPU  1 instructions:  135000001 cycles:  328377191 heartbeat IPC: 0.21498 cumulative IPC: 0.27969 (Simulation time: 0 hr 17 min 0 sec) 
Heartbeat CPU  3 instructions:  126000000 cycles:  328800051 heartbeat IPC: 0.20771 cumulative IPC: 0.24007 (Simulation time: 0 hr 17 min 1 sec) 
Heartbeat CPU  0 instructions:  121000001 cycles:  331345977 heartbeat IPC: 0.21455 cumulative IPC: 0.23067 (Simulation time: 0 hr 17 min 6 sec) 
Heartbeat CPU  2 instructions:  131000002 cycles:  332625862 heartbeat IPC: 0.16882 cumulative IPC: 0.26471 (Simulation time: 0 hr 17 min 8 sec) 
Heartbeat CPU  1 instructions:  136000000 cycles:  333129531 heartbeat IPC: 0.21042 cumulative IPC: 0.27862 (Simulation time: 0 hr 17 min 9 sec) 
Heartbeat CPU  3 instructions:  127000000 cycles:  333428099 heartbeat IPC: 0.21607 cumulative IPC: 0.23971 (Simulation time: 0 hr 17 min 10 sec) 
Heartbeat CPU  0 instructions:  122000001 cycles:  336096453 heartbeat IPC: 0.21051 cumulative IPC: 0.23036 (Simulation time: 0 hr 17 min 15 sec) 
Heartbeat CPU  1 instructions:  137000003 cycles:  337846991 heartbeat IPC: 0.21198 cumulative IPC: 0.27761 (Simulation time: 0 hr 17 min 18 sec) 
Heartbeat CPU  3 instructions:  128000000 cycles:  338124140 heartbeat IPC: 0.21295 cumulative IPC: 0.23931 (Simulation time: 0 hr 17 min 19 sec) 
Heartbeat CPU  2 instructions:  132000000 cycles:  338509011 heartbeat IPC: 0.16998 cumulative IPC: 0.26292 (Simulation time: 0 hr 17 min 20 sec) 
Heartbeat CPU  0 instructions:  123000000 cycles:  340794435 heartbeat IPC: 0.21286 cumulative IPC: 0.23010 (Simulation time: 0 hr 17 min 24 sec) 
Heartbeat CPU  1 instructions:  138000003 cycles:  342631197 heartbeat IPC: 0.20902 cumulative IPC: 0.27657 (Simulation time: 0 hr 17 min 28 sec) 
Heartbeat CPU  3 instructions:  129000002 cycles:  342836075 heartbeat IPC: 0.21223 cumulative IPC: 0.23890 (Simulation time: 0 hr 17 min 28 sec) 
[...]
Core_0_LLC_acc_level_4 4125
Core_0_LLC_acc_level_5 7386
Core_0_LLC_acc_level_6 2643
Core_0_LLC_acc_level_7 1976
Core_0_LLC_acc_level_8 1432
Core_0_LLC_acc_level_9 11014

Core_0_major_page_fault 0
Core_0_minor_page_fault 20519

Core_1_instructions 150000000
Core_1_cycles 516400427
Core_1_IPC 0.29047

Core_1_branch_prediction_accuracy 97.41836
Core_1_branch_MPKI 4.44233
Core_1_average_ROB_occupancy_at_mispredict 80.56308

Core_1_L1D_total_access 19112312
Core_1_L1D_total_hit 16627589
Core_1_L1D_total_miss 2484723
Core_1_L1D_loads 11810985
Core_1_L1D_load_hit 9916829
Core_1_L1D_load_miss 1894156
Core_1_L1D_RFOs 7301327
Core_1_L1D_RFO_hit 6710760
Core_1_L1D_RFO_miss 590567
Core_1_L1D_prefetches 0
Core_1_L1D_prefetch_hit 0
Core_1_L1D_prefetch_miss 0
Core_1_L1D_writebacks 0
Core_1_L1D_writeback_hit 0
Core_1_L1D_writeback_miss 0
Core_1_L1D_prefetch_requested 0
Core_1_L1D_prefetch_dropped 0
Core_1_L1D_prefetch_issued 0
Core_1_L1D_prefetch_filled 0
Core_1_L1D_prefetch_useful 0
Core_1_L1D_prefetch_useless 0
Core_1_L1D_prefetch_late 0
Core_1_L1D_average_miss_latency 98.16930

Core_1_L1D_rq_access 29281058
Core_1_L1D_rq_forward 0
Core_1_L1D_rq_merged 13690935
Core_1_L1D_rq_to_cache 15587741
Core_1_L1D_rq_full 0

Core_1_L1D_wq_access 12219236
Core_1_L1D_wq_forward 2382
Core_1_L1D_wq_merged 35605
Core_1_L1D_wq_to_cache 12183631
Core_1_L1D_wq_full 0

Core_1_L1D_pq_access 0
Core_1_L1D_pq_forward 0
Core_1_L1D_pq_merged 0
Core_1_L1D_pq_to_cache 0
Core_1_L1D_pq_full 0

Core_1_L1D_acc_epochs 179780
Core_1_L1D_acc_level_0 179780
Core_1_L1D_acc_level_1 0
Core_1_L1D_acc_level_2 0
Core_1_L1D_acc_level_3 0
Core_1_L1D_acc_level_4 0
Core_1_L1D_acc_level_5 0
Core_1_L1D_acc_level_6 0
Core_1_L1D_acc_level_7 0
Core_1_L1D_acc_level_8 0
Core_1_L1D_acc_level_9 0

Core_1_L1I_total_access 30387469
Core_1_L1I_total_hit 26052604
Core_1_L1I_total_miss 4334865
Core_1_L1I_loads 30387469
Core_1_L1I_load_hit 26052604
Core_1_L1I_load_miss 4334865
Core_1_L1I_RFOs 0
Core_1_L1I_RFO_hit 0
Core_1_L1I_RFO_miss 0
Core_1_L1I_prefetches 0
Core_1_L1I_prefetch_hit 0
Core_1_L1I_prefetch_miss 0
Core_1_L1I_writebacks 0
Core_1_L1I_writeback_hit 0
Core_1_L1I_writeback_miss 0
Core_1_L1I_prefetch_requested 0
Core_1_L1I_prefetch_dropped 0
Core_1_L1I_prefetch_issued 0
Core_1_L1I_prefetch_filled 0
Core_1_L1I_prefetch_useful 0
Core_1_L1I_prefetch_useless 0
Core_1_L1I_prefetch_late 0
Core_1_L1I_average_miss_latency 109.02302

Core_1_L1I_rq_access 179561872
Core_1_L1I_rq_forward 0
Core_1_L1I_rq_merged 139495816
Core_1_L1I_rq_to_cache 40066056
Core_1_L1I_rq_full 0

Core_1_L1I_wq_access 0
Core_1_L1I_wq_forward 0
Core_1_L1I_wq_merged 0
Core_1_L1I_wq_to_cache 0
Core_1_L1I_wq_full 0

Core_1_L1I_pq_access 0
Core_1_L1I_pq_forward 0
Core_1_L1I_pq_merged 0
Core_1_L1I_pq_to_cache 0
Core_1_L1I_pq_full 0

Core_1_L1I_acc_epochs 179780
Core_1_L1I_acc_level_0 179780
Core_1_L1I_acc_level_1 0
Core_1_L1I_acc_level_2 0
Core_1_L1I_acc_level_3 0
Core_1_L1I_acc_level_4 0
Core_1_L1I_acc_level_5 0
Core_1_L1I_acc_level_6 0
Core_1_L1I_acc_level_7 0
Core_1_L1I_acc_level_8 0
Core_1_L1I_acc_level_9 0

Core_1_L2C_total_access 10835872
Core_1_L2C_total_hit 9479513
Core_1_L2C_total_miss 1356359
Core_1_L2C_loads 6228834
Core_1_L2C_load_hit 5818556
Core_1_L2C_load_miss 410278
Core_1_L2C_RFOs 590281
Core_1_L2C_RFO_hit 328240
Core_1_L2C_RFO_miss 262041
Core_1_L2C_prefetches 3176725
Core_1_L2C_prefetch_hit 2501061
Core_1_L2C_prefetch_miss 675664
Core_1_L2C_writebacks 840032
Core_1_L2C_writeback_hit 831656
Core_1_L2C_writeback_miss 8376
Core_1_L2C_prefetch_requested 5958254
Core_1_L2C_prefetch_dropped 0
Core_1_L2C_prefetch_issued 5958254
Core_1_L2C_prefetch_filled 937651
Core_1_L2C_prefetch_useful 852736
Core_1_L2C_prefetch_useless 84806
Core_1_L2C_prefetch_late 30856
Core_1_L2C_average_miss_latency 164.69741

Core_1_L2C_rq_access 8653859
Core_1_L2C_rq_forward 0
Core_1_L2C_rq_merged 0
Core_1_L2C_rq_to_cache 8653273
Core_1_L2C_rq_full 0

Core_1_L2C_wq_access 1071932
Core_1_L2C_wq_forward 599
Core_1_L2C_wq_merged 0
Core_1_L2C_wq_to_cache 1071932
Core_1_L2C_wq_full 0

Core_1_L2C_pq_access 5958254
Core_1_L2C_pq_forward 0
Core_1_L2C_pq_merged 0
Core_1_L2C_pq_to_cache 5958241
Core_1_L2C_pq_full 0

Core_1_L2C_acc_epochs 179780
Core_1_L2C_acc_level_0 67994
Core_1_L2C_acc_level_1 19550
Core_1_L2C_acc_level_2 15188
Core_1_L2C_acc_level_3 12755
Core_1_L2C_acc_level_4 7681
Core_1_L2C_acc_level_5 11073
Core_1_L2C_acc_level_6 5903
Core_1_L2C_acc_level_7 5326
Core_1_L2C_acc_level_8 4273
Core_1_L2C_acc_level_9 30037

Core_1_LLC_total_access 2009964
Core_1_LLC_total_hit 1095382
Core_1_LLC_total_miss 914582
Core_1_LLC_loads 385935
Core_1_LLC_load_hit 259047
Core_1_LLC_load_miss 126888
Core_1_LLC_RFOs 262009
Core_1_LLC_RFO_hit 165256
Core_1_LLC_RFO_miss 96753
Core_1_LLC_prefetches 1008798
Core_1_LLC_prefetch_hit 353965
Core_1_LLC_prefetch_miss 654833
Core_1_LLC_writebacks 353222
Core_1_LLC_writeback_hit 317114
Core_1_LLC_writeback_miss 36108
Core_1_LLC_prefetch_requested 0
Core_1_LLC_prefetch_dropped 0
Core_1_LLC_prefetch_issued 0
Core_1_LLC_prefetch_filled 3048929
Core_1_LLC_prefetch_useful 442273
Core_1_LLC_prefetch_useless 2560087
Core_1_LLC_prefetch_late 13080
Core_1_LLC_average_miss_latency 725.49192

Core_1_LLC_rq_access 3110325
Core_1_LLC_rq_forward 0
Core_1_LLC_rq_merged 0
Core_1_LLC_rq_to_cache 3110230
Core_1_LLC_rq_full 0

Core_1_LLC_wq_access 1675003
Core_1_LLC_wq_forward 111
Core_1_LLC_wq_merged 0
Core_1_LLC_wq_to_cache 1675003
Core_1_LLC_wq_full 0

Core_1_LLC_pq_access 5599631
Core_1_LLC_pq_forward 0
Core_1_LLC_pq_merged 0
Core_1_LLC_pq_to_cache 5599614
Core_1_LLC_pq_full 0

Core_1_LLC_acc_epochs 665582
Core_1_LLC_acc_level_0 575186
Core_1_LLC_acc_level_1 35009
Core_1_LLC_acc_level_2 18256
Core_1_LLC_acc_level_3 8555
Core_1_LLC_acc_level_4 4125
Core_1_LLC_acc_level_5 7386
Core_1_LLC_acc_level_6 2643
Core_1_LLC_acc_level_7 1976
Core_1_LLC_acc_level_8 1432
Core_1_LLC_acc_level_9 11014

Core_1_major_page_fault 0
Core_1_minor_page_fault 20832

Core_2_instructions 150000000
Core_2_cycles 581835741
Core_2_IPC 0.25780

Core_2_branch_prediction_accuracy 97.01297
Core_2_branch_MPKI 5.00647
Core_2_average_ROB_occupancy_at_mispredict 84.33458

Core_2_L1D_total_access 19068313
Core_2_L1D_total_hit 16625523
Core_2_L1D_total_miss 2442790
Core_2_L1D_loads 12366553
Core_2_L1D_load_hit 10469073
Core_2_L1D_load_miss 1897480
Core_2_L1D_RFOs 6701760
Core_2_L1D_RFO_hit 6156450
Core_2_L1D_RFO_miss 545310
Core_2_L1D_prefetches 0
Core_2_L1D_prefetch_hit 0
Core_2_L1D_prefetch_miss 0
Core_2_L1D_writebacks 0
Core_2_L1D_writeback_hit 0
Core_2_L1D_writeback_miss 0
Core_2_L1D_prefetch_requested 0
Core_2_L1D_prefetch_dropped 0
Core_2_L1D_prefetch_issued 0
Core_2_L1D_prefetch_filled 0
Core_2_L1D_prefetch_useful 0
Core_2_L1D_prefetch_useless 0
Core_2_L1D_prefetch_late 0
Core_2_L1D_average_miss_latency 88.96810

Core_2_L1D_rq_access 27337821
Core_2_L1D_rq_forward 0
Core_2_L1D_rq_merged 12246697
Core_2_L1D_rq_to_cache 15087027
Core_2_L1D_rq_full 0

Core_2_L1D_wq_access 9591856
Core_2_L1D_wq_forward 4097
Core_2_L1D_wq_merged 28723
Core_2_L1D_wq_to_cache 9563133
Core_2_L1D_wq_full 0

Core_2_L1D_pq_access 0
Core_2_L1D_pq_forward 0
Core_2_L1D_pq_merged 0
Core_2_L1D_pq_to_cache 0
Core_2_L1D_pq_full 0

Core_2_L1D_acc_epochs 170578
Core_2_L1D_acc_level_0 170578
Core_2_L1D_acc_level_1 0
Core_2_L1D_acc_level_2 0
Core_2_L1D_acc_level_3 0
Core_2_L1D_acc_level_4 0
Core_2_L1D_acc_level_5 0
Core_2_L1D_acc_level_6 0
Core_2_L1D_acc_level_7 0
Core_2_L1D_acc_level_8 0
Core_2_L1D_acc_level_9 0

Core_2_L1I_total_access 28872969
Core_2_L1I_total_hit 25255219
Core_2_L1I_total_miss 3617750
Core_2_L1I_loads 28872969
Core_2_L1I_load_hit 25255219
Core_2_L1I_load_miss 3617750
Core_2_L1I_RFOs 0
Core_2_L1I_RFO_hit 0
Core_2_L1I_RFO_miss 0
Core_2_L1I_prefetches 0
Core_2_L1I_prefetch_hit 0
Core_2_L1I_prefetch_miss 0
Core_2_L1I_writebacks 0
Core_2_L1I_writeback_hit 0
Core_2_L1I_writeback_miss 0
Core_2_L1I_prefetch_requested 0
Core_2_L1I_prefetch_dropped 0
Core_2_L1I_prefetch_issued 0
Core_2_L1I_prefetch_filled 0
Core_2_L1I_prefetch_useful 0
Core_2_L1I_prefetch_useless 0
Core_2_L1I_prefetch_late 0
Core_2_L1I_average_miss_latency 100.58319

Core_2_L1I_rq_access 169667177
Core_2_L1I_rq_forward 0
Core_2_L1I_rq_merged 134833056
Core_2_L1I_rq_to_cache 34834121
Core_2_L1I_rq_full 0

Core_2_L1I_wq_access 0
Core_2_L1I_wq_forward 0
Core_2_L1I_wq_merged 0
Core_2_L1I_wq_to_cache 0
Core_2_L1I_wq_full 0

Core_2_L1I_pq_access 0
Core_2_L1I_pq_forward 0
Core_2_L1I_pq_merged 0
Core_2_L1I_pq_to_cache 0
Core_2_L1I_pq_full 0

Core_2_L1I_acc_epochs 170578
Core_2_L1I_acc_level_0 170578
Core_2_L1I_acc_level_1 0
Core_2_L1I_acc_level_2 0
Core_2_L1I_acc_level_3 0
Core_2_L1I_acc_level_4 0
Core_2_L1I_acc_level_5 0
Core_2_L1I_acc_level_6 0
Core_2_L1I_acc_level_7 0
Core_2_L1I_acc_level_8 0
Core_2_L1I_acc_level_9 0

Core_2_L2C_total_access 10852287
Core_2_L2C_total_hit 9446697
Core_2_L2C_total_miss 1405590
Core_2_L2C_loads 5514994
Core_2_L2C_load_hit 5042600
Core_2_L2C_load_miss 472394
Core_2_L2C_RFOs 544967
Core_2_L2C_RFO_hit 375451
Core_2_L2C_RFO_miss 169516
Core_2_L2C_prefetches 3876757
Core_2_L2C_prefetch_hit 3133910
Core_2_L2C_prefetch_miss 742847
Core_2_L2C_writebacks 915569
Core_2_L2C_writeback_hit 894736
Core_2_L2C_writeback_miss 20833
Core_2_L2C_prefetch_requested 6692344
Core_2_L2C_prefetch_dropped 0
Core_2_L2C_prefetch_issued 6692344
Core_2_L2C_prefetch_filled 1057327
Core_2_L2C_prefetch_useful 965458
Core_2_L2C_prefetch_useless 91658
Core_2_L2C_prefetch_late 22794
Core_2_L2C_average_miss_latency 169.83959

Core_2_L2C_rq_access 6804125
Core_2_L2C_rq_forward 0
Core_2_L2C_rq_merged 0
Core_2_L2C_rq_to_cache 6803475
Core_2_L2C_rq_full 0

Core_2_L2C_wq_access 1026121
Core_2_L2C_wq_forward 664
Core_2_L2C_wq_merged 0
Core_2_L2C_wq_to_cache 1026121
Core_2_L2C_wq_full 0

Core_2_L2C_pq_access 6692344
Core_2_L2C_pq_forward 0
Core_2_L2C_pq_merged 75
Core_2_L2C_pq_to_cache 6692255
Core_2_L2C_pq_full 0

Core_2_L2C_acc_epochs 170578
Core_2_L2C_acc_level_0 18070
Core_2_L2C_acc_level_1 15321
Core_2_L2C_acc_level_2 15713
Core_2_L2C_acc_level_3 15021
Core_2_L2C_acc_level_4 13244
Core_2_L2C_acc_level_5 13876
Core_2_L2C_acc_level_6 11882
Core_2_L2C_acc_level_7 10474
Core_2_L2C_acc_level_8 8996
Core_2_L2C_acc_level_9 47981

Core_2_LLC_total_access 2005681
Core_2_LLC_total_hit 1217811
Core_2_LLC_total_miss 787870
Core_2_LLC_loads 452321
Core_2_LLC_load_hit 353340
Core_2_LLC_load_miss 98981
Core_2_LLC_RFOs 169464
Core_2_LLC_RFO_hit 98551
Core_2_LLC_RFO_miss 70913
Core_2_LLC_prefetches 1085061
Core_2_LLC_prefetch_hit 490997
Core_2_LLC_prefetch_miss 594064
Core_2_LLC_writebacks 298835
Core_2_LLC_writeback_hit 274923
Core_2_LLC_writeback_miss 23912
Core_2_LLC_prefetch_requested 0
Core_2_LLC_prefetch_dropped 0
Core_2_LLC_prefetch_issued 0
Core_2_LLC_prefetch_filled 3048929
Core_2_LLC_prefetch_useful 442273
Core_2_LLC_prefetch_useless 2560087
Core_2_LLC_prefetch_late 13080
Core_2_LLC_average_miss_latency 842.17174

Core_2_LLC_rq_access 3110325
Core_2_LLC_rq_forward 0
Core_2_LLC_rq_merged 0
Core_2_LLC_rq_to_cache 3110230
Core_2_LLC_rq_full 0

Core_2_LLC_wq_access 1675003
Core_2_LLC_wq_forward 111
Core_2_LLC_wq_merged 0
Core_2_LLC_wq_to_cache 1675003
Core_2_LLC_wq_full 0

Core_2_LLC_pq_access 5599631
Core_2_LLC_pq_forward 0
Core_2_LLC_pq_merged 0
Core_2_LLC_pq_to_cache 5599614
Core_2_LLC_pq_full 0

Core_2_LLC_acc_epochs 665582
Core_2_LLC_acc_level_0 575186
Core_2_LLC_acc_level_1 35009
Core_2_LLC_acc_level_2 18256
Core_2_LLC_acc_level_3 8555
Core_2_LLC_acc_level_4 4125
Core_2_LLC_acc_level_5 7386
Core_2_LLC_acc_level_6 2643
Core_2_LLC_acc_level_7 1976
Core_2_LLC_acc_level_8 1432
Core_2_LLC_acc_level_9 11014

Core_2_major_page_fault 0
Core_2_minor_page_fault 16720

Core_3_instructions 150000000
Core_3_cycles 651223247
Core_3_IPC 0.23034

Core_3_branch_prediction_accuracy 97.15278
Core_3_branch_MPKI 5.03892
Core_3_average_ROB_occupancy_at_mispredict 82.00855

Core_3_L1D_total_access 23182383
Core_3_L1D_total_hit 20314779
Core_3_L1D_total_miss 2867604
Core_3_L1D_loads 13547612
Core_3_L1D_load_hit 11440584
Core_3_L1D_load_miss 2107028
Core_3_L1D_RFOs 9634771
Core_3_L1D_RFO_hit 8874195
Core_3_L1D_RFO_miss 760576
Core_3_L1D_prefetches 0
Core_3_L1D_prefetch_hit 0
Core_3_L1D_prefetch_miss 0
Core_3_L1D_writebacks 0
Core_3_L1D_writeback_hit 0
Core_3_L1D_writeback_miss 0
Core_3_L1D_prefetch_requested 0
Core_3_L1D_prefetch_dropped 0
Core_3_L1D_prefetch_issued 0
Core_3_L1D_prefetch_filled 0
Core_3_L1D_prefetch_useful 0
Core_3_L1D_prefetch_useless 0
Core_3_L1D_prefetch_late 0
Core_3_L1D_average_miss_latency 84.23608

Core_3_L1D_rq_access 26529338
Core_3_L1D_rq_forward 0
Core_3_L1D_rq_merged 12127677
Core_3_L1D_rq_to_cache 14399041
Core_3_L1D_rq_full 0

Core_3_L1D_wq_access 12496268
Core_3_L1D_wq_forward 2620
Core_3_L1D_wq_merged 37117
Core_3_L1D_wq_to_cache 12459151
Core_3_L1D_wq_full 0

Core_3_L1D_pq_access 0
Core_3_L1D_pq_forward 0
Core_3_L1D_pq_merged 0
Core_3_L1D_pq_to_cache 0
Core_3_L1D_pq_full 0

Core_3_L1D_acc_epochs 170125
Core_3_L1D_acc_level_0 170125
Core_3_L1D_acc_level_1 0
Core_3_L1D_acc_level_2 0
Core_3_L1D_acc_level_3 0
Core_3_L1D_acc_level_4 0
Core_3_L1D_acc_level_5 0
Core_3_L1D_acc_level_6 0
Core_3_L1D_acc_level_7 0
Core_3_L1D_acc_level_8 0
Core_3_L1D_acc_level_9 0

Core_3_L1I_total_access 32181793
Core_3_L1I_total_hit 26496363
Core_3_L1I_total_miss 5685430
Core_3_L1I_loads 32181793
Core_3_L1I_load_hit 26496363
Core_3_L1I_load_miss 5685430
Core_3_L1I_RFOs 0
Core_3_L1I_RFO_hit 0
Core_3_L1I_RFO_miss 0
Core_3_L1I_prefetches 0
Core_3_L1I_prefetch_hit 0
Core_3_L1I_prefetch_miss 0
Core_3_L1I_writebacks 0
Core_3_L1I_writeback_hit 0
Core_3_L1I_writeback_miss 0
Core_3_L1I_prefetch_requested 0
Core_3_L1I_prefetch_dropped 0
Core_3_L1I_prefetch_issued 0
Core_3_L1I_prefetch_filled 0
Core_3_L1I_prefetch_useful 0
Core_3_L1I_prefetch_useless 0
Core_3_L1I_prefetch_late 0
Core_3_L1I_average_miss_latency 84.12156

Core_3_L1I_rq_access 156033512
Core_3_L1I_rq_forward 0
Core_3_L1I_rq_merged 119580548
Core_3_L1I_rq_to_cache 36452964
Core_3_L1I_rq_full 0

Core_3_L1I_wq_access 0
Core_3_L1I_wq_forward 0
Core_3_L1I_wq_merged 0
Core_3_L1I_wq_to_cache 0
Core_3_L1I_wq_full 0

Core_3_L1I_pq_access 0
Core_3_L1I_pq_forward 0
Core_3_L1I_pq_merged 0
Core_3_L1I_pq_to_cache 0
Core_3_L1I_pq_full 0

Core_3_L1I_acc_epochs 170125
Core_3_L1I_acc_level_0 170125
Core_3_L1I_acc_level_1 0
Core_3_L1I_acc_level_2 0
Core_3_L1I_acc_level_3 0
Core_3_L1I_acc_level_4 0
Core_3_L1I_acc_level_5 0
Core_3_L1I_acc_level_6 0
Core_3_L1I_acc_level_7 0
Core_3_L1I_acc_level_8 0
Core_3_L1I_acc_level_9 0

Core_3_L2C_total_access 13272021
Core_3_L2C_total_hit 11955576
Core_3_L2C_total_miss 1316445
Core_3_L2C_loads 7792253
Core_3_L2C_load_hit 7315854
Core_3_L2C_load_miss 476399
Core_3_L2C_RFOs 760154
Core_3_L2C_RFO_hit 426763
Core_3_L2C_RFO_miss 333391
Core_3_L2C_prefetches 3656098
Core_3_L2C_prefetch_hit 3160110
Core_3_L2C_prefetch_miss 495988
Core_3_L2C_writebacks 1063516
Core_3_L2C_writeback_hit 1052849
Core_3_L2C_writeback_miss 10667
Core_3_L2C_prefetch_requested 5608084
Core_3_L2C_prefetch_dropped 0
Core_3_L2C_prefetch_issued 5608084
Core_3_L2C_prefetch_filled 762076
Core_3_L2C_prefetch_useful 685660
Core_3_L2C_prefetch_useless 76264
Core_3_L2C_prefetch_late 29472
Core_3_L2C_average_miss_latency 136.64375

Core_3_L2C_rq_access 8607262
Core_3_L2C_rq_forward 0
Core_3_L2C_rq_merged 0
Core_3_L2C_rq_to_cache 8606635
Core_3_L2C_rq_full 0

Core_3_L2C_wq_access 1065432
Core_3_L2C_wq_forward 637
Core_3_L2C_wq_merged 0
Core_3_L2C_wq_to_cache 1065432
Core_3_L2C_wq_full 0

Core_3_L2C_pq_access 5608084
Core_3_L2C_pq_forward 0
Core_3_L2C_pq_merged 2
Core_3_L2C_pq_to_cache 5608072
Core_3_L2C_pq_full 0

Core_3_L2C_acc_epochs 170125
Core_3_L2C_acc_level_0 76223
Core_3_L2C_acc_level_1 17666
Core_3_L2C_acc_level_2 13650
Core_3_L2C_acc_level_3 9392
Core_3_L2C_acc_level_4 5855
Core_3_L2C_acc_level_5 10052
Core_3_L2C_acc_level_6 4758
Core_3_L2C_acc_level_7 4263
Core_3_L2C_acc_level_8 3477
Core_3_L2C_acc_level_9 24789

Core_3_LLC_total_access 2150142
Core_3_LLC_total_hit 1339130
Core_3_LLC_total_miss 811012
Core_3_LLC_loads 447418
Core_3_LLC_load_hit 305198
Core_3_LLC_load_miss 142220
Core_3_LLC_RFOs 333360
Core_3_LLC_RFO_hit 207265
Core_3_LLC_RFO_miss 126095
Core_3_LLC_prefetches 930162
Core_3_LLC_prefetch_hit 436785
Core_3_LLC_prefetch_miss 493377
Core_3_LLC_writebacks 439202
Core_3_LLC_writeback_hit 389882
Core_3_LLC_writeback_miss 49320
Core_3_LLC_prefetch_requested 0
Core_3_LLC_prefetch_dropped 0
Core_3_LLC_prefetch_issued 0
Core_3_LLC_prefetch_filled 3048929
Core_3_LLC_prefetch_useful 442273
Core_3_LLC_prefetch_useless 2560087
Core_3_LLC_prefetch_late 13080
Core_3_LLC_average_miss_latency 818.14060

Core_3_LLC_rq_access 3110325
Core_3_LLC_rq_forward 0
Core_3_LLC_rq_merged 0
Core_3_LLC_rq_to_cache 3110230
Core_3_LLC_rq_full 0

Core_3_LLC_wq_access 1675003
Core_3_LLC_wq_forward 111
Core_3_LLC_wq_merged 0
Core_3_LLC_wq_to_cache 1675003
Core_3_LLC_wq_full 0

Core_3_LLC_pq_access 5599631
Core_3_LLC_pq_forward 0
Core_3_LLC_pq_merged 0
Core_3_LLC_pq_to_cache 5599614
Core_3_LLC_pq_full 0

Core_3_LLC_acc_epochs 665582
Core_3_LLC_acc_level_0 575186
Core_3_LLC_acc_level_1 35009
Core_3_LLC_acc_level_2 18256
Core_3_LLC_acc_level_3 8555
Core_3_LLC_acc_level_4 4125
Core_3_LLC_acc_level_5 7386
Core_3_LLC_acc_level_6 2643
Core_3_LLC_acc_level_7 1976
Core_3_LLC_acc_level_8 1432
Core_3_LLC_acc_level_9 11014

Core_3_major_page_fault 0
Core_3_minor_page_fault 21667

[Bingo] PHT Access: 2163691
[Bingo] PHT Hit PC+Addr: 1450837
[Bingo] PHT Hit PC+Offs: 147128
[Bingo] PHT Miss: 565726
[Bingo] Prefetch PC+Addr: 0
[Bingo] Prefetch PC+Offs: 0
[Bingo] Useful PC+Addr: 0
[Bingo] Useful PC+Offs: 0
[Bingo] Useless PC+Addr: 0
[Bingo] Useless PC+Offs: 0
[Bingo] L1 Prefetch per Region: 0.00000
[Bingo] L2 Prefetch per Region: 4.14469
[Bingo] L3 Prefetch per Region: 0.35684
[Bingo] No Prefetch per Region: 27.49847
[Bingo] Number of Voters Mean: 3.82563
[Bingo] Number of Voters SD: 3.86859

[Bingo] PHT Access: 2200677
[Bingo] PHT Hit PC+Addr: 1458759
[Bingo] PHT Hit PC+Offs: 152562
[Bingo] PHT Miss: 589356
[Bingo] Prefetch PC+Addr: 0
[Bingo] Prefetch PC+Offs: 0
[Bingo] Useful PC+Addr: 0
[Bingo] Useful PC+Offs: 0
[Bingo] Useless PC+Addr: 0
[Bingo] Useless PC+Offs: 0
[Bingo] L1 Prefetch per Region: 0.00000
[Bingo] L2 Prefetch per Region: 4.35742
[Bingo] L3 Prefetch per Region: 0.34704
[Bingo] No Prefetch per Region: 27.29554
[Bingo] Number of Voters Mean: 4.45599
[Bingo] Number of Voters SD: 4.63968

[Bingo] PHT Access: 2062884
[Bingo] PHT Hit PC+Addr: 1421880
[Bingo] PHT Hit PC+Offs: 142656
[Bingo] PHT Miss: 498348
[Bingo] Prefetch PC+Addr: 0
[Bingo] Prefetch PC+Offs: 0
[Bingo] Useful PC+Addr: 0
[Bingo] Useful PC+Offs: 0
[Bingo] Useless PC+Addr: 0
[Bingo] Useless PC+Offs: 0
[Bingo] L1 Prefetch per Region: 0.00000
[Bingo] L2 Prefetch per Region: 4.93856
[Bingo] L3 Prefetch per Region: 0.34935
[Bingo] No Prefetch per Region: 26.71209
[Bingo] Number of Voters Mean: 5.94306
[Bingo] Number of Voters SD: 5.22577

[Bingo] PHT Access: 2126941
[Bingo] PHT Hit PC+Addr: 1356092
[Bingo] PHT Hit PC+Offs: 171006
[Bingo] PHT Miss: 599843
[Bingo] Prefetch PC+Addr: 0
[Bingo] Prefetch PC+Offs: 0
[Bingo] Useful PC+Addr: 0
[Bingo] Useful PC+Offs: 0
[Bingo] Useless PC+Addr: 0
[Bingo] Useless PC+Offs: 0
[Bingo] L1 Prefetch per Region: 0.00000
[Bingo] L2 Prefetch per Region: 4.28992
[Bingo] L3 Prefetch per Region: 0.38660
[Bingo] No Prefetch per Region: 27.32348
[Bingo] Number of Voters Mean: 3.84939
[Bingo] Number of Voters SD: 4.10433

Channel_0_RQ_row_buffer_hit 838882
Channel_0_RQ_row_buffer_miss 866917
Channel_0_WQ_row_buffer_hit 27287
Channel_0_WQ_row_buffer_miss 270281
Channel_0_WQ_full 0
Channel_0_dbus_congested 1190612

Channel_1_RQ_row_buffer_hit 837290
Channel_1_RQ_row_buffer_miss 879359
Channel_1_WQ_row_buffer_hit 27497
Channel_1_WQ_row_buffer_miss 270477
Channel_1_WQ_full 0
Channel_1_dbus_congested 1198979

avg_congested_cycle 10

DRAM_bw_pochs 2662328
DRAM_bw_level_0 2466934
DRAM_bw_level_1 102142
DRAM_bw_level_2 31721
DRAM_bw_level_3 61531
