*************************************************
   ChampSim Multicore Out-of-Order Simulator
   Last compiled: Mar 31 2025 20:14:32
*************************************************
parsing config file: /data3/config/spp_dev2.ini

trace_0 /data3/STREAMING/traces/streaming_phase4_core0.trace.xz
trace_1 /data3/STREAMING/traces/streaming_phase4_core1.trace.xz
trace_2 /data3/STREAMING/traces/streaming_phase4_core2.trace.xz
trace_3 /data3/STREAMING/traces/streaming_phase4_core3.trace.xz
adding L2C_PREFETCHER: SPP_dev2
Initialize SIGNATURE TABLE
ST_SET: 1
ST_WAY: 256
ST_TAG_BIT: 16
ST_TAG_MASK: ffff

Initialize PATTERN TABLE
PT_SET: 512
PT_WAY: 4
SIG_DELTA_BIT: 7
C_SIG_BIT: 4
C_DELTA_BIT: 4

Initialize PREFETCH FILTER
FILTER_SET: 1024
fill_threshold: 90
pf_threshold: 40

adding L2C_PREFETCHER: SPP_dev2
Initialize SIGNATURE TABLE
ST_SET: 1
ST_WAY: 256
ST_TAG_BIT: 16
ST_TAG_MASK: ffff

Initialize PATTERN TABLE
PT_SET: 512
PT_WAY: 4
SIG_DELTA_BIT: 7
C_SIG_BIT: 4
C_DELTA_BIT: 4

Initialize PREFETCH FILTER
FILTER_SET: 1024
fill_threshold: 90
pf_threshold: 40

adding L2C_PREFETCHER: SPP_dev2
Initialize SIGNATURE TABLE
ST_SET: 1
ST_WAY: 256
ST_TAG_BIT: 16
ST_TAG_MASK: ffff

Initialize PATTERN TABLE
PT_SET: 512
PT_WAY: 4
SIG_DELTA_BIT: 7
C_SIG_BIT: 4
C_DELTA_BIT: 4

Initialize PREFETCH FILTER
FILTER_SET: 1024
fill_threshold: 90
pf_threshold: 40

adding L2C_PREFETCHER: SPP_dev2
Initialize SIGNATURE TABLE
ST_SET: 1
ST_WAY: 256
ST_TAG_BIT: 16
ST_TAG_MASK: ffff

Initialize PATTERN TABLE
PT_SET: 512
PT_WAY: 4
SIG_DELTA_BIT: 7
C_SIG_BIT: 4
C_DELTA_BIT: 4

Initialize PREFETCH FILTER
FILTER_SET: 1024
fill_threshold: 90
pf_threshold: 40

Initialize SHIP state
warmup_instructions 50000000
simulation_instructions 150000000
champsim_seed 8862
measure_ipc 0
measure_ipc_epoch 1000
measure_dram_bw 1
measure_dram_bw_epoch 256
measure_cache_acc 1
measure_cache_acc_epoch 1024
l1d_perfect 0
l2c_perfect 0
llc_perfect 0
l1d_semi_perfect 0
l2c_semi_perfect 0
llc_semi_perfect 0
semi_perfect_cache_page_buffer_size 64

num_cpus 4
cpu_freq 4000
dram_io_freq 2400
page_size 4096
block_size 64
max_read_per_cycle 8
max_fill_per_cycle 1
dram_channels 2
log2_dram_channels 1
dram_ranks 1
dram_banks 8
dram_rows 65536
dram_columns 128
dram_row_size 8
dram_size 8192
dram_pages 2097152

fetch_width 6
decode_width 6
exec_width 4
lq_width 2
sq_width 2
retire_width 4
scheduler_size 128
branch_mispredict_penalty 20
rob_size 256
lq_size 72
sq_size 56
num_instr_destinations_sparc 4
num_instr_destinations 2
num_instr_sources 4

itlb_set 16
itlb_way 8
itlb_rq_size 16
itlb_wq_size 16
itlb_pq_size 0
itlb_mshr_size 8
itlb_latency 1

dtlb_set 16
dtlb_way 4
dtlb_rq_size 16
dtlb_wq_size 16
dtlb_pq_size 0
dtlb_mshr_size 8
dtlb_latency 1

stlb_set 128
stlb_way 12
stlb_rq_size 32
stlb_wq_size 32
stlb_pq_size 0
stlb_mshr_size 16
stlb_latency 8

l1i_size 32
l1i_set 64
l1i_way 8
l1i_rq_size 64
l1i_wq_size 64
l1i_pq_size 8
l1i_mshr_size 8
l1i_latency 1

l1d_size 32
l1d_set 64
l1d_way 8
l1d_rq_size 64
l1d_wq_size 64
l1d_pq_size 8
l1d_mshr_size 16
l1d_latency 4

l2c_size 256
l2c_set 512
l2c_way 8
l2c_rq_size 32
l2c_wq_size 32
l2c_pq_size 32
l2c_mshr_size 32
l2c_latency 10

llc_size 8192
llc_set 8192
llc_way 16
llc_rq_size 128
llc_wq_size 128
llc_pq_size 128
llc_mshr_size 256
llc_latency 20

dram_channel_width 8
dram_wq_size 64
dram_rq_size 64
tRP 15
tRCD 15
tCAS 12.5
dram_dbus_turn_around_time 30
dram_write_high_wm 56
dram_write_low_wm 48
min_dram_writes_per_switch 16
dram_mtps 2400
dram_dbus_return_time 13


Heartbeat CPU  0 instructions:    1000003 cycles:     634908 heartbeat IPC: 1.57504 cumulative IPC: 1.57504 (Simulation time: 0 hr 0 min 7 sec) 
Heartbeat CPU  1 instructions:    1000002 cycles:     647926 heartbeat IPC: 1.54339 cumulative IPC: 1.54339 (Simulation time: 0 hr 0 min 7 sec) 
Heartbeat CPU  3 instructions:    1000000 cycles:     647928 heartbeat IPC: 1.54338 cumulative IPC: 1.54338 (Simulation time: 0 hr 0 min 7 sec) 
Heartbeat CPU  2 instructions:    1000001 cycles:     723817 heartbeat IPC: 1.38157 cumulative IPC: 1.38157 (Simulation time: 0 hr 0 min 8 sec) 
Heartbeat CPU  0 instructions:    2000001 cycles:    1200856 heartbeat IPC: 1.76694 cumulative IPC: 1.66548 (Simulation time: 0 hr 0 min 14 sec) 
Heartbeat CPU  1 instructions:    2000002 cycles:    1211953 heartbeat IPC: 1.77296 cumulative IPC: 1.65023 (Simulation time: 0 hr 0 min 14 sec) 
Heartbeat CPU  3 instructions:    2000000 cycles:    1221138 heartbeat IPC: 1.74456 cumulative IPC: 1.63782 (Simulation time: 0 hr 0 min 14 sec) 
Heartbeat CPU  2 instructions:    2000000 cycles:    1350704 heartbeat IPC: 1.59518 cumulative IPC: 1.48071 (Simulation time: 0 hr 0 min 16 sec) 
Heartbeat CPU  0 instructions:    3000001 cycles:    1704338 heartbeat IPC: 1.98617 cumulative IPC: 1.76021 (Simulation time: 0 hr 0 min 20 sec) 
Heartbeat CPU  1 instructions:    3000000 cycles:    1734484 heartbeat IPC: 1.91376 cumulative IPC: 1.72962 (Simulation time: 0 hr 0 min 21 sec) 
Heartbeat CPU  3 instructions:    3000003 cycles:    1755810 heartbeat IPC: 1.87031 cumulative IPC: 1.70861 (Simulation time: 0 hr 0 min 21 sec) 
Heartbeat CPU  2 instructions:    3000001 cycles:    1819402 heartbeat IPC: 2.13357 cumulative IPC: 1.64889 (Simulation time: 0 hr 0 min 22 sec) 
Heartbeat CPU  2 instructions:    4000000 cycles:    2133744 heartbeat IPC: 3.18125 cumulative IPC: 1.87464 (Simulation time: 0 hr 0 min 28 sec) 
Heartbeat CPU  0 instructions:    4000000 cycles:    2162046 heartbeat IPC: 2.18480 cumulative IPC: 1.85010 (Simulation time: 0 hr 0 min 28 sec) 
Heartbeat CPU  3 instructions:    4000000 cycles:    2208421 heartbeat IPC: 2.20940 cumulative IPC: 1.81125 (Simulation time: 0 hr 0 min 29 sec) 
Heartbeat CPU  1 instructions:    4000000 cycles:    2237039 heartbeat IPC: 1.98983 cumulative IPC: 1.78808 (Simulation time: 0 hr 0 min 29 sec) 
Heartbeat CPU  2 instructions:    5000001 cycles:    2456241 heartbeat IPC: 3.10081 cumulative IPC: 2.03563 (Simulation time: 0 hr 0 min 33 sec) 
Heartbeat CPU  0 instructions:    5000003 cycles:    2621510 heartbeat IPC: 2.17646 cumulative IPC: 1.90730 (Simulation time: 0 hr 0 min 36 sec) 
Heartbeat CPU  3 instructions:    5000000 cycles:    2676725 heartbeat IPC: 2.13537 cumulative IPC: 1.86795 (Simulation time: 0 hr 0 min 37 sec) 
Heartbeat CPU  1 instructions:    5000002 cycles:    2723159 heartbeat IPC: 2.05711 cumulative IPC: 1.83610 (Simulation time: 0 hr 0 min 38 sec) 
Heartbeat CPU  2 instructions:    6000001 cycles:    2773551 heartbeat IPC: 3.15149 cumulative IPC: 2.16329 (Simulation time: 0 hr 0 min 38 sec) 
Heartbeat CPU  2 instructions:    7000001 cycles:    3076273 heartbeat IPC: 3.30336 cumulative IPC: 2.27548 (Simulation time: 0 hr 0 min 43 sec) 
Heartbeat CPU  0 instructions:    6000000 cycles:    3101571 heartbeat IPC: 2.08306 cumulative IPC: 1.93450 (Simulation time: 0 hr 0 min 44 sec) 
Heartbeat CPU  3 instructions:    6000000 cycles:    3174751 heartbeat IPC: 2.00793 cumulative IPC: 1.88991 (Simulation time: 0 hr 0 min 45 sec) 
Heartbeat CPU  1 instructions:    6000002 cycles:    3197895 heartbeat IPC: 2.10643 cumulative IPC: 1.87623 (Simulation time: 0 hr 0 min 45 sec) 
Heartbeat CPU  2 instructions:    8000000 cycles:    3377778 heartbeat IPC: 3.31669 cumulative IPC: 2.36842 (Simulation time: 0 hr 0 min 48 sec) 
Heartbeat CPU  0 instructions:    7000003 cycles:    3581506 heartbeat IPC: 2.08362 cumulative IPC: 1.95449 (Simulation time: 0 hr 0 min 52 sec) 
Heartbeat CPU  3 instructions:    7000000 cycles:    3650681 heartbeat IPC: 2.10115 cumulative IPC: 1.91745 (Simulation time: 0 hr 0 min 53 sec) 
Heartbeat CPU  1 instructions:    7000000 cycles:    3674039 heartbeat IPC: 2.10020 cumulative IPC: 1.90526 (Simulation time: 0 hr 0 min 53 sec) 
Heartbeat CPU  2 instructions:    9000002 cycles:    3678823 heartbeat IPC: 3.32177 cumulative IPC: 2.44644 (Simulation time: 0 hr 0 min 53 sec) 
Heartbeat CPU  2 instructions:   10000001 cycles:    3980704 heartbeat IPC: 3.31256 cumulative IPC: 2.51212 (Simulation time: 0 hr 0 min 58 sec) 
Heartbeat CPU  0 instructions:    8000000 cycles:    4087452 heartbeat IPC: 1.97649 cumulative IPC: 1.95721 (Simulation time: 0 hr 1 min 0 sec) 
Heartbeat CPU  3 instructions:    8000000 cycles:    4110392 heartbeat IPC: 2.17528 cumulative IPC: 1.94629 (Simulation time: 0 hr 1 min 1 sec) 
Heartbeat CPU  1 instructions:    8000000 cycles:    4130232 heartbeat IPC: 2.19205 cumulative IPC: 1.93694 (Simulation time: 0 hr 1 min 1 sec) 
Heartbeat CPU  2 instructions:   11000001 cycles:    4280658 heartbeat IPC: 3.33384 cumulative IPC: 2.56970 (Simulation time: 0 hr 1 min 3 sec) 
Heartbeat CPU  0 instructions:    9000000 cycles:    4580758 heartbeat IPC: 2.02714 cumulative IPC: 1.96474 (Simulation time: 0 hr 1 min 8 sec) 
Heartbeat CPU  2 instructions:   12000000 cycles:    4581152 heartbeat IPC: 3.32785 cumulative IPC: 2.61943 (Simulation time: 0 hr 1 min 8 sec) 
Heartbeat CPU  3 instructions:    9000003 cycles:    4598821 heartbeat IPC: 2.04739 cumulative IPC: 1.95702 (Simulation time: 0 hr 1 min 9 sec) 
Heartbeat CPU  1 instructions:    9000001 cycles:    4614962 heartbeat IPC: 2.06301 cumulative IPC: 1.95018 (Simulation time: 0 hr 1 min 9 sec) 
Heartbeat CPU  2 instructions:   13000000 cycles:    4947780 heartbeat IPC: 2.72756 cumulative IPC: 2.62744 (Simulation time: 0 hr 1 min 14 sec) 
Heartbeat CPU  0 instructions:   10000001 cycles:    5071200 heartbeat IPC: 2.03898 cumulative IPC: 1.97192 (Simulation time: 0 hr 1 min 16 sec) 
Heartbeat CPU  1 instructions:   10000000 cycles:    5082692 heartbeat IPC: 2.13798 cumulative IPC: 1.96746 (Simulation time: 0 hr 1 min 16 sec) 
Heartbeat CPU  3 instructions:   10000000 cycles:    5087417 heartbeat IPC: 2.04667 cumulative IPC: 1.96563 (Simulation time: 0 hr 1 min 16 sec) 
Heartbeat CPU  0 instructions:   11000000 cycles:    5528584 heartbeat IPC: 2.18634 cumulative IPC: 1.98966 (Simulation time: 0 hr 1 min 22 sec) 
Heartbeat CPU  2 instructions:   14000001 cycles:    5539425 heartbeat IPC: 1.69020 cumulative IPC: 2.52734 (Simulation time: 0 hr 1 min 22 sec) 
Heartbeat CPU  3 instructions:   11000003 cycles:    5552204 heartbeat IPC: 2.15153 cumulative IPC: 1.98120 (Simulation time: 0 hr 1 min 23 sec) 
Heartbeat CPU  1 instructions:   11000000 cycles:    5561027 heartbeat IPC: 2.09058 cumulative IPC: 1.97805 (Simulation time: 0 hr 1 min 23 sec) 
Heartbeat CPU  0 instructions:   12000000 cycles:    5984597 heartbeat IPC: 2.19292 cumulative IPC: 2.00515 (Simulation time: 0 hr 1 min 29 sec) 
Heartbeat CPU  3 instructions:   12000000 cycles:    5996701 heartbeat IPC: 2.24973 cumulative IPC: 2.00110 (Simulation time: 0 hr 1 min 29 sec) 
Heartbeat CPU  1 instructions:   12000000 cycles:    6035527 heartbeat IPC: 2.10748 cumulative IPC: 1.98823 (Simulation time: 0 hr 1 min 30 sec) 
Heartbeat CPU  2 instructions:   15000001 cycles:    6115514 heartbeat IPC: 1.73584 cumulative IPC: 2.45278 (Simulation time: 0 hr 1 min 31 sec) 
Heartbeat CPU  0 instructions:   13000001 cycles:    6443389 heartbeat IPC: 2.17964 cumulative IPC: 2.01757 (Simulation time: 0 hr 1 min 36 sec) 
Heartbeat CPU  3 instructions:   13000002 cycles:    6466310 heartbeat IPC: 2.12944 cumulative IPC: 2.01042 (Simulation time: 0 hr 1 min 36 sec) 
Heartbeat CPU  1 instructions:   13000001 cycles:    6534351 heartbeat IPC: 2.00472 cumulative IPC: 1.98949 (Simulation time: 0 hr 1 min 37 sec) 
Heartbeat CPU  2 instructions:   16000000 cycles:    6609029 heartbeat IPC: 2.02628 cumulative IPC: 2.42093 (Simulation time: 0 hr 1 min 38 sec) 
Heartbeat CPU  2 instructions:   17000000 cycles:    6920830 heartbeat IPC: 3.20717 cumulative IPC: 2.45635 (Simulation time: 0 hr 1 min 43 sec) 
Heartbeat CPU  0 instructions:   14000001 cycles:    6962896 heartbeat IPC: 1.92490 cumulative IPC: 2.01066 (Simulation time: 0 hr 1 min 43 sec) 
Heartbeat CPU  3 instructions:   14000003 cycles:    6995364 heartbeat IPC: 1.89017 cumulative IPC: 2.00133 (Simulation time: 0 hr 1 min 44 sec) 
Heartbeat CPU  1 instructions:   14000002 cycles:    7075544 heartbeat IPC: 1.84777 cumulative IPC: 1.97865 (Simulation time: 0 hr 1 min 45 sec) 
Heartbeat CPU  2 instructions:   18000003 cycles:    7224195 heartbeat IPC: 3.29637 cumulative IPC: 2.49163 (Simulation time: 0 hr 1 min 48 sec) 
Heartbeat CPU  0 instructions:   15000002 cycles:    7500172 heartbeat IPC: 1.86124 cumulative IPC: 1.99995 (Simulation time: 0 hr 1 min 52 sec) 
Heartbeat CPU  3 instructions:   15000002 cycles:    7508945 heartbeat IPC: 1.94711 cumulative IPC: 1.99762 (Simulation time: 0 hr 1 min 52 sec) 
Heartbeat CPU  2 instructions:   19000000 cycles:    7529836 heartbeat IPC: 3.27180 cumulative IPC: 2.52330 (Simulation time: 0 hr 1 min 52 sec) 
Heartbeat CPU  1 instructions:   15000000 cycles:    7590380 heartbeat IPC: 1.94236 cumulative IPC: 1.97619 (Simulation time: 0 hr 1 min 53 sec) 
Heartbeat CPU  2 instructions:   20000000 cycles:    7829276 heartbeat IPC: 3.33957 cumulative IPC: 2.55451 (Simulation time: 0 hr 1 min 57 sec) 
Heartbeat CPU  0 instructions:   16000000 cycles:    7988014 heartbeat IPC: 2.04984 cumulative IPC: 2.00300 (Simulation time: 0 hr 1 min 59 sec) 
Heartbeat CPU  1 instructions:   16000000 cycles:    8110930 heartbeat IPC: 1.92105 cumulative IPC: 1.97265 (Simulation time: 0 hr 2 min 1 sec) 
Heartbeat CPU  3 instructions:   16000000 cycles:    8121074 heartbeat IPC: 1.63364 cumulative IPC: 1.97018 (Simulation time: 0 hr 2 min 1 sec) 
Heartbeat CPU  2 instructions:   21000000 cycles:    8132563 heartbeat IPC: 3.29721 cumulative IPC: 2.58221 (Simulation time: 0 hr 2 min 1 sec) 
Heartbeat CPU  2 instructions:   22000003 cycles:    8429122 heartbeat IPC: 3.37202 cumulative IPC: 2.61000 (Simulation time: 0 hr 2 min 6 sec) 
Heartbeat CPU  0 instructions:   17000001 cycles:    8469306 heartbeat IPC: 2.07774 cumulative IPC: 2.00725 (Simulation time: 0 hr 2 min 7 sec) 
Heartbeat CPU  1 instructions:   17000000 cycles:    8595738 heartbeat IPC: 2.06267 cumulative IPC: 1.97772 (Simulation time: 0 hr 2 min 9 sec) 
Heartbeat CPU  3 instructions:   17000003 cycles:    8613338 heartbeat IPC: 2.03144 cumulative IPC: 1.97368 (Simulation time: 0 hr 2 min 9 sec) 
Heartbeat CPU  2 instructions:   23000002 cycles:    8729293 heartbeat IPC: 3.33143 cumulative IPC: 2.63481 (Simulation time: 0 hr 2 min 11 sec) 
Heartbeat CPU  0 instructions:   18000002 cycles:    8937788 heartbeat IPC: 2.13456 cumulative IPC: 2.01392 (Simulation time: 0 hr 2 min 14 sec) 
Heartbeat CPU  2 instructions:   24000000 cycles:    9026101 heartbeat IPC: 3.36917 cumulative IPC: 2.65896 (Simulation time: 0 hr 2 min 16 sec) 
Heartbeat CPU  1 instructions:   18000001 cycles:    9039403 heartbeat IPC: 2.25396 cumulative IPC: 1.99128 (Simulation time: 0 hr 2 min 16 sec) 
Heartbeat CPU  3 instructions:   18000003 cycles:    9115507 heartbeat IPC: 1.99136 cumulative IPC: 1.97466 (Simulation time: 0 hr 2 min 17 sec) 
Heartbeat CPU  0 instructions:   19000003 cycles:    9409668 heartbeat IPC: 2.11918 cumulative IPC: 2.01920 (Simulation time: 0 hr 2 min 21 sec) 
Heartbeat CPU  1 instructions:   19000001 cycles:    9516115 heartbeat IPC: 2.09770 cumulative IPC: 1.99661 (Simulation time: 0 hr 2 min 23 sec) 
Heartbeat CPU  2 instructions:   25000001 cycles:    9560835 heartbeat IPC: 1.87009 cumulative IPC: 2.61483 (Simulation time: 0 hr 2 min 24 sec) 
Heartbeat CPU  3 instructions:   19000001 cycles:    9605588 heartbeat IPC: 2.04047 cumulative IPC: 1.97802 (Simulation time: 0 hr 2 min 24 sec) 
Heartbeat CPU  0 instructions:   20000000 cycles:    9887464 heartbeat IPC: 2.09294 cumulative IPC: 2.02276 (Simulation time: 0 hr 2 min 28 sec) 
Heartbeat CPU  1 instructions:   20000000 cycles:    9989586 heartbeat IPC: 2.11206 cumulative IPC: 2.00208 (Simulation time: 0 hr 2 min 30 sec) 
Heartbeat CPU  3 instructions:   20000000 cycles:   10079108 heartbeat IPC: 2.11184 cumulative IPC: 1.98430 (Simulation time: 0 hr 2 min 31 sec) 
Heartbeat CPU  2 instructions:   26000003 cycles:   10171391 heartbeat IPC: 1.63785 cumulative IPC: 2.55619 (Simulation time: 0 hr 2 min 32 sec) 
Heartbeat CPU  0 instructions:   21000000 cycles:   10392599 heartbeat IPC: 1.97967 cumulative IPC: 2.02067 (Simulation time: 0 hr 2 min 35 sec) 
Heartbeat CPU  1 instructions:   21000001 cycles:   10476298 heartbeat IPC: 2.05461 cumulative IPC: 2.00452 (Simulation time: 0 hr 2 min 36 sec) 
Heartbeat CPU  3 instructions:   21000001 cycles:   10528897 heartbeat IPC: 2.22327 cumulative IPC: 1.99451 (Simulation time: 0 hr 2 min 37 sec) 
Heartbeat CPU  2 instructions:   27000000 cycles:   10764447 heartbeat IPC: 1.68618 cumulative IPC: 2.50826 (Simulation time: 0 hr 2 min 40 sec) 
Heartbeat CPU  0 instructions:   22000003 cycles:   10896846 heartbeat IPC: 1.98316 cumulative IPC: 2.01893 (Simulation time: 0 hr 2 min 42 sec) 
Heartbeat CPU  1 instructions:   22000002 cycles:   10950817 heartbeat IPC: 2.10740 cumulative IPC: 2.00898 (Simulation time: 0 hr 2 min 43 sec) 
Heartbeat CPU  3 instructions:   22000000 cycles:   10992147 heartbeat IPC: 2.15866 cumulative IPC: 2.00143 (Simulation time: 0 hr 2 min 43 sec) 
Heartbeat CPU  2 instructions:   28000000 cycles:   11357501 heartbeat IPC: 1.68619 cumulative IPC: 2.46533 (Simulation time: 0 hr 2 min 49 sec) 
Heartbeat CPU  1 instructions:   23000000 cycles:   11401015 heartbeat IPC: 2.22124 cumulative IPC: 2.01736 (Simulation time: 0 hr 2 min 49 sec) 
Heartbeat CPU  0 instructions:   23000000 cycles:   11418726 heartbeat IPC: 1.91614 cumulative IPC: 2.01424 (Simulation time: 0 hr 2 min 49 sec) 
Heartbeat CPU  3 instructions:   23000003 cycles:   11492320 heartbeat IPC: 1.99931 cumulative IPC: 2.00134 (Simulation time: 0 hr 2 min 51 sec) 
Heartbeat CPU  1 instructions:   24000000 cycles:   11849986 heartbeat IPC: 2.22732 cumulative IPC: 2.02532 (Simulation time: 0 hr 2 min 55 sec) 
Heartbeat CPU  0 instructions:   24000000 cycles:   11908425 heartbeat IPC: 2.04207 cumulative IPC: 2.01538 (Simulation time: 0 hr 2 min 56 sec) 
Heartbeat CPU  2 instructions:   29000003 cycles:   11950290 heartbeat IPC: 1.68695 cumulative IPC: 2.42672 (Simulation time: 0 hr 2 min 57 sec) 
Heartbeat CPU  3 instructions:   24000000 cycles:   11987193 heartbeat IPC: 2.02071 cumulative IPC: 2.00214 (Simulation time: 0 hr 2 min 57 sec) 
Heartbeat CPU  1 instructions:   25000001 cycles:   12406124 heartbeat IPC: 1.79812 cumulative IPC: 2.01513 (Simulation time: 0 hr 3 min 3 sec) 
Heartbeat CPU  2 instructions:   30000003 cycles:   12438413 heartbeat IPC: 2.04866 cumulative IPC: 2.41188 (Simulation time: 0 hr 3 min 3 sec) 
Heartbeat CPU  0 instructions:   25000001 cycles:   12456822 heartbeat IPC: 1.82350 cumulative IPC: 2.00693 (Simulation time: 0 hr 3 min 3 sec) 
Heartbeat CPU  3 instructions:   25000000 cycles:   12509167 heartbeat IPC: 1.91580 cumulative IPC: 1.99853 (Simulation time: 0 hr 3 min 4 sec) 
Heartbeat CPU  2 instructions:   31000000 cycles:   12752517 heartbeat IPC: 3.18365 cumulative IPC: 2.43089 (Simulation time: 0 hr 3 min 8 sec) 
Heartbeat CPU  1 instructions:   26000001 cycles:   12924164 heartbeat IPC: 1.93035 cumulative IPC: 2.01174 (Simulation time: 0 hr 3 min 10 sec) 
Heartbeat CPU  3 instructions:   26000002 cycles:   13049558 heartbeat IPC: 1.85052 cumulative IPC: 1.99240 (Simulation time: 0 hr 3 min 12 sec) 
Heartbeat CPU  2 instructions:   32000000 cycles:   13060308 heartbeat IPC: 3.24896 cumulative IPC: 2.45017 (Simulation time: 0 hr 3 min 12 sec) 
Heartbeat CPU  0 instructions:   26000003 cycles:   13066880 heartbeat IPC: 1.63919 cumulative IPC: 1.98976 (Simulation time: 0 hr 3 min 12 sec) 
Heartbeat CPU  1 instructions:   27000002 cycles:   13470974 heartbeat IPC: 1.82879 cumulative IPC: 2.00431 (Simulation time: 0 hr 3 min 17 sec) 
Heartbeat CPU  2 instructions:   33000000 cycles:   13477205 heartbeat IPC: 2.39867 cumulative IPC: 2.44858 (Simulation time: 0 hr 3 min 18 sec) 
Heartbeat CPU  3 instructions:   27000000 cycles:   13609614 heartbeat IPC: 1.78553 cumulative IPC: 1.98389 (Simulation time: 0 hr 3 min 19 sec) 
Heartbeat CPU  0 instructions:   27000001 cycles:   13717722 heartbeat IPC: 1.53647 cumulative IPC: 1.96826 (Simulation time: 0 hr 3 min 20 sec) 
Heartbeat CPU  1 instructions:   28000000 cycles:   14011230 heartbeat IPC: 1.85097 cumulative IPC: 1.99840 (Simulation time: 0 hr 3 min 24 sec) 
Heartbeat CPU  2 instructions:   34000000 cycles:   14033320 heartbeat IPC: 1.79819 cumulative IPC: 2.42281 (Simulation time: 0 hr 3 min 24 sec) 
Heartbeat CPU  3 instructions:   28000000 cycles:   14169231 heartbeat IPC: 1.78694 cumulative IPC: 1.97611 (Simulation time: 0 hr 3 min 26 sec) 
Heartbeat CPU  0 instructions:   28000000 cycles:   14278686 heartbeat IPC: 1.78264 cumulative IPC: 1.96096 (Simulation time: 0 hr 3 min 27 sec) 
Heartbeat CPU  1 instructions:   29000000 cycles:   14559681 heartbeat IPC: 1.82332 cumulative IPC: 1.99180 (Simulation time: 0 hr 3 min 31 sec) 
Heartbeat CPU  2 instructions:   35000002 cycles:   14593756 heartbeat IPC: 1.78433 cumulative IPC: 2.39829 (Simulation time: 0 hr 3 min 31 sec) 
Heartbeat CPU  3 instructions:   29000002 cycles:   14705629 heartbeat IPC: 1.86429 cumulative IPC: 1.97203 (Simulation time: 0 hr 3 min 33 sec) 
Heartbeat CPU  0 instructions:   29000001 cycles:   14820749 heartbeat IPC: 1.84481 cumulative IPC: 1.95672 (Simulation time: 0 hr 3 min 34 sec) 
Heartbeat CPU  1 instructions:   30000000 cycles:   15083487 heartbeat IPC: 1.90910 cumulative IPC: 1.98893 (Simulation time: 0 hr 3 min 38 sec) 
Heartbeat CPU  2 instructions:   36000000 cycles:   15093855 heartbeat IPC: 1.99960 cumulative IPC: 2.38508 (Simulation time: 0 hr 3 min 38 sec) 
Heartbeat CPU  3 instructions:   30000000 cycles:   15314606 heartbeat IPC: 1.64209 cumulative IPC: 1.95891 (Simulation time: 0 hr 3 min 41 sec) 
Heartbeat CPU  0 instructions:   30000002 cycles:   15357757 heartbeat IPC: 1.86217 cumulative IPC: 1.95341 (Simulation time: 0 hr 3 min 42 sec) 
Heartbeat CPU  2 instructions:   37000000 cycles:   15405383 heartbeat IPC: 3.20998 cumulative IPC: 2.40176 (Simulation time: 0 hr 3 min 43 sec) 
Heartbeat CPU  1 instructions:   31000002 cycles:   15555223 heartbeat IPC: 2.11983 cumulative IPC: 1.99290 (Simulation time: 0 hr 3 min 45 sec) 
Heartbeat CPU  2 instructions:   38000003 cycles:   15691382 heartbeat IPC: 3.49653 cumulative IPC: 2.42171 (Simulation time: 0 hr 3 min 47 sec) 
Heartbeat CPU  3 instructions:   31000003 cycles:   15783701 heartbeat IPC: 2.13177 cumulative IPC: 1.96405 (Simulation time: 0 hr 3 min 49 sec) 
Heartbeat CPU  0 instructions:   31000001 cycles:   15902944 heartbeat IPC: 1.83423 cumulative IPC: 1.94932 (Simulation time: 0 hr 3 min 51 sec) 
Heartbeat CPU  2 instructions:   39000001 cycles:   16002819 heartbeat IPC: 3.21092 cumulative IPC: 2.43707 (Simulation time: 0 hr 3 min 52 sec) 
Heartbeat CPU  1 instructions:   32000000 cycles:   16049459 heartbeat IPC: 2.02332 cumulative IPC: 1.99384 (Simulation time: 0 hr 3 min 53 sec) 
Heartbeat CPU  3 instructions:   32000000 cycles:   16253663 heartbeat IPC: 2.12783 cumulative IPC: 1.96879 (Simulation time: 0 hr 3 min 56 sec) 
Heartbeat CPU  0 instructions:   32000000 cycles:   16425242 heartbeat IPC: 1.91461 cumulative IPC: 1.94822 (Simulation time: 0 hr 3 min 58 sec) 
Heartbeat CPU  2 instructions:   40000000 cycles:   16500251 heartbeat IPC: 2.01032 cumulative IPC: 2.42421 (Simulation time: 0 hr 4 min 0 sec) 
Heartbeat CPU  1 instructions:   33000000 cycles:   16546789 heartbeat IPC: 2.01074 cumulative IPC: 1.99434 (Simulation time: 0 hr 4 min 0 sec) 
Heartbeat CPU  3 instructions:   33000000 cycles:   16743893 heartbeat IPC: 2.03986 cumulative IPC: 1.97087 (Simulation time: 0 hr 4 min 3 sec) 
Heartbeat CPU  2 instructions:   41000000 cycles:   16861075 heartbeat IPC: 2.77143 cumulative IPC: 2.43164 (Simulation time: 0 hr 4 min 4 sec) 
Heartbeat CPU  0 instructions:   33000002 cycles:   17004641 heartbeat IPC: 1.72593 cumulative IPC: 1.94065 (Simulation time: 0 hr 4 min 7 sec) 
Heartbeat CPU  1 instructions:   34000001 cycles:   17080286 heartbeat IPC: 1.87443 cumulative IPC: 1.99060 (Simulation time: 0 hr 4 min 8 sec) 
Heartbeat CPU  2 instructions:   42000000 cycles:   17272172 heartbeat IPC: 2.43252 cumulative IPC: 2.43166 (Simulation time: 0 hr 4 min 10 sec) 
Heartbeat CPU  3 instructions:   34000001 cycles:   17275495 heartbeat IPC: 1.88111 cumulative IPC: 1.96811 (Simulation time: 0 hr 4 min 10 sec) 
Heartbeat CPU  0 instructions:   34000003 cycles:   17521767 heartbeat IPC: 1.93377 cumulative IPC: 1.94044 (Simulation time: 0 hr 4 min 14 sec) 
Heartbeat CPU  2 instructions:   43000001 cycles:   17555171 heartbeat IPC: 3.53358 cumulative IPC: 2.44942 (Simulation time: 0 hr 4 min 15 sec) 
Heartbeat CPU  1 instructions:   35000002 cycles:   17610301 heartbeat IPC: 1.88674 cumulative IPC: 1.98747 (Simulation time: 0 hr 4 min 16 sec) 
Heartbeat CPU  3 instructions:   35000001 cycles:   17786968 heartbeat IPC: 1.95514 cumulative IPC: 1.96773 (Simulation time: 0 hr 4 min 19 sec) 
Heartbeat CPU  2 instructions:   44000000 cycles:   17834453 heartbeat IPC: 3.58061 cumulative IPC: 2.46713 (Simulation time: 0 hr 4 min 19 sec) 
Heartbeat CPU  0 instructions:   35000000 cycles:   18031341 heartbeat IPC: 1.96242 cumulative IPC: 1.94106 (Simulation time: 0 hr 4 min 22 sec) 
Heartbeat CPU  2 instructions:   45000001 cycles:   18124960 heartbeat IPC: 3.44226 cumulative IPC: 2.48276 (Simulation time: 0 hr 4 min 24 sec) 
Heartbeat CPU  1 instructions:   36000000 cycles:   18141351 heartbeat IPC: 1.88306 cumulative IPC: 1.98442 (Simulation time: 0 hr 4 min 24 sec) 
Heartbeat CPU  3 instructions:   36000000 cycles:   18289015 heartbeat IPC: 1.99184 cumulative IPC: 1.96839 (Simulation time: 0 hr 4 min 27 sec) 
Heartbeat CPU  2 instructions:   46000001 cycles:   18404179 heartbeat IPC: 3.58142 cumulative IPC: 2.49943 (Simulation time: 0 hr 4 min 28 sec) 
Heartbeat CPU  0 instructions:   36000000 cycles:   18601136 heartbeat IPC: 1.75502 cumulative IPC: 1.93537 (Simulation time: 0 hr 4 min 31 sec) 
Heartbeat CPU  1 instructions:   37000000 cycles:   18660371 heartbeat IPC: 1.92671 cumulative IPC: 1.98281 (Simulation time: 0 hr 4 min 32 sec) 
Heartbeat CPU  2 instructions:   47000003 cycles:   18692154 heartbeat IPC: 3.47253 cumulative IPC: 2.51442 (Simulation time: 0 hr 4 min 33 sec) 
Heartbeat CPU  3 instructions:   37000000 cycles:   18841958 heartbeat IPC: 1.80850 cumulative IPC: 1.96370 (Simulation time: 0 hr 4 min 35 sec) 
Heartbeat CPU  2 instructions:   48000000 cycles:   18981979 heartbeat IPC: 3.45035 cumulative IPC: 2.52871 (Simulation time: 0 hr 4 min 37 sec) 
Heartbeat CPU  1 instructions:   38000002 cycles:   19050546 heartbeat IPC: 2.56296 cumulative IPC: 1.99469 (Simulation time: 0 hr 4 min 38 sec) 
Heartbeat CPU  0 instructions:   37000000 cycles:   19140788 heartbeat IPC: 1.85305 cumulative IPC: 1.93304 (Simulation time: 0 hr 4 min 40 sec) 
Heartbeat CPU  2 instructions:   49000002 cycles:   19274622 heartbeat IPC: 3.41714 cumulative IPC: 2.54220 (Simulation time: 0 hr 4 min 42 sec) 
Heartbeat CPU  3 instructions:   38000003 cycles:   19369982 heartbeat IPC: 1.89386 cumulative IPC: 1.96180 (Simulation time: 0 hr 4 min 44 sec) 
Heartbeat CPU  1 instructions:   39000003 cycles:   19379739 heartbeat IPC: 3.03773 cumulative IPC: 2.01241 (Simulation time: 0 hr 4 min 44 sec) 
Heartbeat CPU  2 instructions:   50000001 cycles:   19567341 heartbeat IPC: 3.41624 cumulative IPC: 2.55528 (Simulation time: 0 hr 4 min 47 sec) 
Heartbeat CPU  0 instructions:   38000003 cycles:   19683737 heartbeat IPC: 1.84180 cumulative IPC: 1.93053 (Simulation time: 0 hr 4 min 48 sec) 
Heartbeat CPU  2 instructions:   51000003 cycles:   19854145 heartbeat IPC: 3.48671 cumulative IPC: 0.05037 (Simulation time: 0 hr 4 min 51 sec) 
Heartbeat CPU  3 instructions:   39000000 cycles:   19888219 heartbeat IPC: 1.92961 cumulative IPC: 1.96096 (Simulation time: 0 hr 4 min 51 sec) 
Heartbeat CPU  1 instructions:   40000000 cycles:   19905370 heartbeat IPC: 1.90247 cumulative IPC: 2.00951 (Simulation time: 0 hr 4 min 52 sec) 
Heartbeat CPU  2 instructions:   52000000 cycles:   20140796 heartbeat IPC: 3.48855 cumulative IPC: 0.09930 (Simulation time: 0 hr 4 min 55 sec) 
Heartbeat CPU  0 instructions:   39000001 cycles:   20229708 heartbeat IPC: 1.83160 cumulative IPC: 1.92786 (Simulation time: 0 hr 4 min 57 sec) 
Heartbeat CPU  1 instructions:   41000003 cycles:   20277816 heartbeat IPC: 2.68496 cumulative IPC: 2.02191 (Simulation time: 0 hr 4 min 57 sec) 
Heartbeat CPU  3 instructions:   40000000 cycles:   20432621 heartbeat IPC: 1.83688 cumulative IPC: 1.95765 (Simulation time: 0 hr 5 min 0 sec) 
Heartbeat CPU  2 instructions:   53000003 cycles:   20451924 heartbeat IPC: 3.21412 cumulative IPC: 0.14669 (Simulation time: 0 hr 5 min 0 sec) 
Heartbeat CPU  2 instructions:   54000002 cycles:   20742613 heartbeat IPC: 3.44010 cumulative IPC: 0.19284 (Simulation time: 0 hr 5 min 4 sec) 
Heartbeat CPU  1 instructions:   42000003 cycles:   20766210 heartbeat IPC: 2.04753 cumulative IPC: 2.02252 (Simulation time: 0 hr 5 min 5 sec) 
Heartbeat CPU  0 instructions:   40000000 cycles:   20876875 heartbeat IPC: 1.54519 cumulative IPC: 1.91600 (Simulation time: 0 hr 5 min 7 sec) 
Heartbeat CPU  3 instructions:   41000000 cycles:   20941873 heartbeat IPC: 1.96366 cumulative IPC: 1.95780 (Simulation time: 0 hr 5 min 8 sec) 
Heartbeat CPU  1 instructions:   43000001 cycles:   21064642 heartbeat IPC: 3.35084 cumulative IPC: 2.04134 (Simulation time: 0 hr 5 min 10 sec) 
Heartbeat CPU  2 instructions:   55000003 cycles:   21072457 heartbeat IPC: 3.03174 cumulative IPC: 0.23728 (Simulation time: 0 hr 5 min 10 sec) 
Heartbeat CPU  1 instructions:   44000000 cycles:   21357472 heartbeat IPC: 3.41495 cumulative IPC: 2.06017 (Simulation time: 0 hr 5 min 15 sec) 
Heartbeat CPU  2 instructions:   56000000 cycles:   21371991 heartbeat IPC: 3.33851 cumulative IPC: 0.28074 (Simulation time: 0 hr 5 min 15 sec) 
Heartbeat CPU  0 instructions:   41000001 cycles:   21396567 heartbeat IPC: 1.92422 cumulative IPC: 1.91620 (Simulation time: 0 hr 5 min 15 sec) 
Heartbeat CPU  3 instructions:   42000000 cycles:   21455912 heartbeat IPC: 1.94538 cumulative IPC: 1.95750 (Simulation time: 0 hr 5 min 16 sec) 
Heartbeat CPU  1 instructions:   45000002 cycles:   21644769 heartbeat IPC: 3.48073 cumulative IPC: 2.07902 (Simulation time: 0 hr 5 min 19 sec) 
Heartbeat CPU  2 instructions:   57000000 cycles:   21659465 heartbeat IPC: 3.47858 cumulative IPC: 0.32318 (Simulation time: 0 hr 5 min 20 sec) 
Heartbeat CPU  3 instructions:   43000003 cycles:   21799953 heartbeat IPC: 2.90664 cumulative IPC: 1.97248 (Simulation time: 0 hr 5 min 22 sec) 
Heartbeat CPU  0 instructions:   42000000 cycles:   21908170 heartbeat IPC: 1.95464 cumulative IPC: 1.91709 (Simulation time: 0 hr 5 min 24 sec) 
Heartbeat CPU  1 instructions:   46000003 cycles:   21995383 heartbeat IPC: 2.85214 cumulative IPC: 2.09135 (Simulation time: 0 hr 5 min 26 sec) 
Heartbeat CPU  2 instructions:   58000003 cycles:   22017354 heartbeat IPC: 2.79417 cumulative IPC: 0.36335 (Simulation time: 0 hr 5 min 26 sec) 
Heartbeat CPU  3 instructions:   44000000 cycles:   22081470 heartbeat IPC: 3.55217 cumulative IPC: 1.99262 (Simulation time: 0 hr 5 min 27 sec) 
Heartbeat CPU  3 instructions:   45000000 cycles:   22358506 heartbeat IPC: 3.60964 cumulative IPC: 2.01266 (Simulation time: 0 hr 5 min 31 sec) 
Heartbeat CPU  0 instructions:   43000001 cycles:   22396296 heartbeat IPC: 2.04865 cumulative IPC: 1.91996 (Simulation time: 0 hr 5 min 32 sec) 
Heartbeat CPU  1 instructions:   47000002 cycles:   22491190 heartbeat IPC: 2.01691 cumulative IPC: 2.08971 (Simulation time: 0 hr 5 min 33 sec) 
Heartbeat CPU  3 instructions:   46000000 cycles:   22628919 heartbeat IPC: 3.69805 cumulative IPC: 2.03280 (Simulation time: 0 hr 5 min 36 sec) 
Heartbeat CPU  2 instructions:   59000003 cycles:   22648770 heartbeat IPC: 1.58374 cumulative IPC: 0.39737 (Simulation time: 0 hr 5 min 36 sec) 
Heartbeat CPU  0 instructions:   44000000 cycles:   22879549 heartbeat IPC: 2.06931 cumulative IPC: 1.92311 (Simulation time: 0 hr 5 min 41 sec) 
Heartbeat CPU  3 instructions:   47000003 cycles:   22896142 heartbeat IPC: 3.74220 cumulative IPC: 2.05275 (Simulation time: 0 hr 5 min 41 sec) 
Heartbeat CPU  1 instructions:   48000000 cycles:   22975399 heartbeat IPC: 2.06522 cumulative IPC: 2.08919 (Simulation time: 0 hr 5 min 43 sec) 
Heartbeat CPU  3 instructions:   48000000 cycles:   23161281 heartbeat IPC: 3.77160 cumulative IPC: 2.07242 (Simulation time: 0 hr 5 min 46 sec) 
Heartbeat CPU  2 instructions:   60000000 cycles:   23252226 heartbeat IPC: 1.65712 cumulative IPC: 0.43007 (Simulation time: 0 hr 5 min 48 sec) 
Heartbeat CPU  0 instructions:   45000000 cycles:   23356611 heartbeat IPC: 2.09616 cumulative IPC: 1.92665 (Simulation time: 0 hr 5 min 49 sec) 
Heartbeat CPU  3 instructions:   49000001 cycles:   23427270 heartbeat IPC: 3.75956 cumulative IPC: 2.09158 (Simulation time: 0 hr 5 min 51 sec) 
Heartbeat CPU  1 instructions:   49000003 cycles:   23490503 heartbeat IPC: 1.94136 cumulative IPC: 2.08595 (Simulation time: 0 hr 5 min 52 sec) 
Heartbeat CPU  3 instructions:   50000001 cycles:   23693041 heartbeat IPC: 3.76264 cumulative IPC: 2.11032 (Simulation time: 0 hr 5 min 55 sec) 
Heartbeat CPU  2 instructions:   61000000 cycles:   23835427 heartbeat IPC: 1.71467 cumulative IPC: 0.46150 (Simulation time: 0 hr 5 min 58 sec) 
Heartbeat CPU  0 instructions:   46000003 cycles:   23873798 heartbeat IPC: 1.93354 cumulative IPC: 1.92680 (Simulation time: 0 hr 5 min 58 sec) 
Heartbeat CPU  3 instructions:   51000000 cycles:   23957940 heartbeat IPC: 3.77502 cumulative IPC: 0.04174 (Simulation time: 0 hr 6 min 0 sec) 
Heartbeat CPU  1 instructions:   50000000 cycles:   23999489 heartbeat IPC: 1.96468 cumulative IPC: 2.08338 (Simulation time: 0 hr 6 min 0 sec) 
Heartbeat CPU  3 instructions:   52000000 cycles:   24223056 heartbeat IPC: 3.77193 cumulative IPC: 0.08257 (Simulation time: 0 hr 6 min 4 sec) 
Heartbeat CPU  2 instructions:   62000002 cycles:   24288635 heartbeat IPC: 2.20650 cumulative IPC: 0.49406 (Simulation time: 0 hr 6 min 6 sec) 
Heartbeat CPU  0 instructions:   47000000 cycles:   24354687 heartbeat IPC: 2.07948 cumulative IPC: 1.92981 (Simulation time: 0 hr 6 min 7 sec) 
Heartbeat CPU  1 instructions:   51000002 cycles:   24493208 heartbeat IPC: 2.02545 cumulative IPC: 0.04083 (Simulation time: 0 hr 6 min 10 sec) 
Heartbeat CPU  3 instructions:   53000000 cycles:   24493492 heartbeat IPC: 3.69773 cumulative IPC: 0.12248 (Simulation time: 0 hr 6 min 10 sec) 
Heartbeat CPU  2 instructions:   63000000 cycles:   24588170 heartbeat IPC: 3.33850 cumulative IPC: 0.52871 (Simulation time: 0 hr 6 min 12 sec) 
Heartbeat CPU  3 instructions:   54000002 cycles:   24762265 heartbeat IPC: 3.72062 cumulative IPC: 0.16154 (Simulation time: 0 hr 6 min 15 sec) 
Heartbeat CPU  0 instructions:   48000000 cycles:   24873343 heartbeat IPC: 1.92806 cumulative IPC: 1.92978 (Simulation time: 0 hr 6 min 17 sec) 
Heartbeat CPU  2 instructions:   64000000 cycles:   24887970 heartbeat IPC: 3.33556 cumulative IPC: 0.56252 (Simulation time: 0 hr 6 min 18 sec) 
Heartbeat CPU  1 instructions:   52000000 cycles:   24971391 heartbeat IPC: 2.09125 cumulative IPC: 0.08009 (Simulation time: 0 hr 6 min 19 sec) 
Heartbeat CPU  3 instructions:   55000002 cycles:   25030486 heartbeat IPC: 3.72827 cumulative IPC: 0.19976 (Simulation time: 0 hr 6 min 20 sec) 
Heartbeat CPU  2 instructions:   65000003 cycles:   25186799 heartbeat IPC: 3.34641 cumulative IPC: 0.59555 (Simulation time: 0 hr 6 min 24 sec) 
Heartbeat CPU  3 instructions:   56000000 cycles:   25296705 heartbeat IPC: 3.75630 cumulative IPC: 0.23719 (Simulation time: 0 hr 6 min 26 sec) 
Heartbeat CPU  0 instructions:   49000000 cycles:   25370070 heartbeat IPC: 2.01318 cumulative IPC: 1.93141 (Simulation time: 0 hr 6 min 27 sec) 
Heartbeat CPU  1 instructions:   53000002 cycles:   25534021 heartbeat IPC: 1.77737 cumulative IPC: 0.11749 (Simulation time: 0 hr 6 min 30 sec) 
Heartbeat CPU  3 instructions:   57000000 cycles:   25565012 heartbeat IPC: 3.72707 cumulative IPC: 0.27381 (Simulation time: 0 hr 6 min 30 sec) 
Heartbeat CPU  2 instructions:   66000000 cycles:   25681181 heartbeat IPC: 2.02272 cumulative IPC: 0.62302 (Simulation time: 0 hr 6 min 32 sec) 
Heartbeat CPU  0 instructions:   50000002 cycles:   25859776 heartbeat IPC: 2.04205 cumulative IPC: 1.93350 (Simulation time: 0 hr 6 min 35 sec) 

Warmup complete CPU  0 instructions:   50000002 cycles:   25859776 (Simulation time: 0 hr 6 min 35 sec) 
Warmup complete CPU  1 instructions:   53695040 cycles:   25859775 (Simulation time: 0 hr 6 min 35 sec) 
Warmup complete CPU  2 instructions:   66261688 cycles:   25859776 (Simulation time: 0 hr 6 min 35 sec) 
Warmup complete CPU  3 instructions:   57963992 cycles:   25859775 (Simulation time: 0 hr 6 min 35 sec) 

Heartbeat CPU  3 instructions:   58000001 cycles:   26066305 heartbeat IPC: 1.99484 cumulative IPC: 0.17435 (Simulation time: 0 hr 6 min 36 sec) 
Heartbeat CPU  1 instructions:   54000003 cycles:   27268294 heartbeat IPC: 0.57661 cumulative IPC: 0.21651 (Simulation time: 0 hr 6 min 38 sec) 
Heartbeat CPU  2 instructions:   67000003 cycles:   30158329 heartbeat IPC: 0.22336 cumulative IPC: 0.17176 (Simulation time: 0 hr 6 min 45 sec) 
Heartbeat CPU  0 instructions:   51000003 cycles:   30458849 heartbeat IPC: 0.21744 cumulative IPC: 0.21744 (Simulation time: 0 hr 6 min 45 sec) 
Heartbeat CPU  3 instructions:   59000000 cycles:   30710064 heartbeat IPC: 0.21534 cumulative IPC: 0.21360 (Simulation time: 0 hr 6 min 46 sec) 
Heartbeat CPU  1 instructions:   55000001 cycles:   31877958 heartbeat IPC: 0.21694 cumulative IPC: 0.21684 (Simulation time: 0 hr 6 min 48 sec) 
Heartbeat CPU  0 instructions:   52000000 cycles:   35216420 heartbeat IPC: 0.21019 cumulative IPC: 0.21375 (Simulation time: 0 hr 6 min 55 sec) 
Heartbeat CPU  3 instructions:   60000000 cycles:   35260910 heartbeat IPC: 0.21974 cumulative IPC: 0.21657 (Simulation time: 0 hr 6 min 56 sec) 
Heartbeat CPU  2 instructions:   68000000 cycles:   35979498 heartbeat IPC: 0.17179 cumulative IPC: 0.17177 (Simulation time: 0 hr 6 min 57 sec) 
Heartbeat CPU  1 instructions:   56000000 cycles:   36472708 heartbeat IPC: 0.21764 cumulative IPC: 0.21718 (Simulation time: 0 hr 6 min 58 sec) 
Heartbeat CPU  3 instructions:   61000001 cycles:   39297148 heartbeat IPC: 0.24776 cumulative IPC: 0.22594 (Simulation time: 0 hr 7 min 5 sec) 
Heartbeat CPU  0 instructions:   53000000 cycles:   40135134 heartbeat IPC: 0.20331 cumulative IPC: 0.21015 (Simulation time: 0 hr 7 min 6 sec) 
Heartbeat CPU  1 instructions:   57000002 cycles:   41135851 heartbeat IPC: 0.21445 cumulative IPC: 0.21635 (Simulation time: 0 hr 7 min 8 sec) 
Heartbeat CPU  2 instructions:   69000003 cycles:   41815213 heartbeat IPC: 0.17136 cumulative IPC: 0.17162 (Simulation time: 0 hr 7 min 10 sec) 
Heartbeat CPU  3 instructions:   62000001 cycles:   42066367 heartbeat IPC: 0.36111 cumulative IPC: 0.24904 (Simulation time: 0 hr 7 min 11 sec) 
Heartbeat CPU  3 instructions:   63000002 cycles:   44293058 heartbeat IPC: 0.44910 cumulative IPC: 0.27320 (Simulation time: 0 hr 7 min 16 sec) 
Heartbeat CPU  0 instructions:   54000000 cycles:   44876597 heartbeat IPC: 0.21091 cumulative IPC: 0.21034 (Simulation time: 0 hr 7 min 18 sec) 
Heartbeat CPU  1 instructions:   58000000 cycles:   45729835 heartbeat IPC: 0.21768 cumulative IPC: 0.21666 (Simulation time: 0 hr 7 min 19 sec) 
Heartbeat CPU  2 instructions:   70000001 cycles:   47623787 heartbeat IPC: 0.17216 cumulative IPC: 0.17177 (Simulation time: 0 hr 7 min 23 sec) 
Heartbeat CPU  3 instructions:   64000000 cycles:   48875646 heartbeat IPC: 0.21822 cumulative IPC: 0.26225 (Simulation time: 0 hr 7 min 26 sec) 
Heartbeat CPU  0 instructions:   55000000 cycles:   49602220 heartbeat IPC: 0.21161 cumulative IPC: 0.21059 (Simulation time: 0 hr 7 min 27 sec) 
Heartbeat CPU  1 instructions:   59000002 cycles:   50435987 heartbeat IPC: 0.21249 cumulative IPC: 0.21586 (Simulation time: 0 hr 7 min 29 sec) 
Heartbeat CPU  3 instructions:   65000001 cycles:   51786237 heartbeat IPC: 0.34357 cumulative IPC: 0.27138 (Simulation time: 0 hr 7 min 32 sec) 
Heartbeat CPU  2 instructions:   71000002 cycles:   52245450 heartbeat IPC: 0.21637 cumulative IPC: 0.17958 (Simulation time: 0 hr 7 min 34 sec) 
Heartbeat CPU  0 instructions:   56000000 cycles:   54269823 heartbeat IPC: 0.21424 cumulative IPC: 0.21119 (Simulation time: 0 hr 7 min 38 sec) 
Heartbeat CPU  3 instructions:   66000001 cycles:   54656891 heartbeat IPC: 0.34835 cumulative IPC: 0.27906 (Simulation time: 0 hr 7 min 39 sec) 
Heartbeat CPU  1 instructions:   60000000 cycles:   55020025 heartbeat IPC: 0.21815 cumulative IPC: 0.21622 (Simulation time: 0 hr 7 min 40 sec) 
Heartbeat CPU  2 instructions:   72000000 cycles:   56563062 heartbeat IPC: 0.23161 cumulative IPC: 0.18690 (Simulation time: 0 hr 7 min 43 sec) 
Heartbeat CPU  2 instructions:   73000003 cycles:   58525277 heartbeat IPC: 0.50963 cumulative IPC: 0.20628 (Simulation time: 0 hr 7 min 48 sec) 
Heartbeat CPU  0 instructions:   57000001 cycles:   58936883 heartbeat IPC: 0.21427 cumulative IPC: 0.21163 (Simulation time: 0 hr 7 min 49 sec) 
Heartbeat CPU  1 instructions:   61000001 cycles:   58943786 heartbeat IPC: 0.25486 cumulative IPC: 0.22080 (Simulation time: 0 hr 7 min 49 sec) 
Heartbeat CPU  3 instructions:   67000001 cycles:   59288673 heartbeat IPC: 0.21590 cumulative IPC: 0.27031 (Simulation time: 0 hr 7 min 50 sec) 
Heartbeat CPU  2 instructions:   74000002 cycles:   60371416 heartbeat IPC: 0.54167 cumulative IPC: 0.22422 (Simulation time: 0 hr 7 min 52 sec) 
Heartbeat CPU  1 instructions:   62000002 cycles:   61641094 heartbeat IPC: 0.37074 cumulative IPC: 0.23210 (Simulation time: 0 hr 7 min 56 sec) 
Heartbeat CPU  2 instructions:   75000001 cycles:   63094034 heartbeat IPC: 0.36729 cumulative IPC: 0.23468 (Simulation time: 0 hr 8 min 0 sec) 
Heartbeat CPU  0 instructions:   58000001 cycles:   63655385 heartbeat IPC: 0.21193 cumulative IPC: 0.21166 (Simulation time: 0 hr 8 min 1 sec) 
Heartbeat CPU  1 instructions:   63000001 cycles:   63799025 heartbeat IPC: 0.46341 cumulative IPC: 0.24526 (Simulation time: 0 hr 8 min 2 sec) 
Heartbeat CPU  3 instructions:   68000000 cycles:   64208993 heartbeat IPC: 0.20324 cumulative IPC: 0.26170 (Simulation time: 0 hr 8 min 2 sec) 
Heartbeat CPU  2 instructions:   76000000 cycles:   65909907 heartbeat IPC: 0.35513 cumulative IPC: 0.24315 (Simulation time: 0 hr 8 min 6 sec) 
Heartbeat CPU  0 instructions:   59000000 cycles:   68147600 heartbeat IPC: 0.22261 cumulative IPC: 0.21283 (Simulation time: 0 hr 8 min 11 sec) 
Heartbeat CPU  1 instructions:   64000000 cycles:   68182234 heartbeat IPC: 0.22814 cumulative IPC: 0.24349 (Simulation time: 0 hr 8 min 11 sec) 
Heartbeat CPU  3 instructions:   69000000 cycles:   68998719 heartbeat IPC: 0.20878 cumulative IPC: 0.25582 (Simulation time: 0 hr 8 min 12 sec) 
Heartbeat CPU  1 instructions:   65000001 cycles:   70897773 heartbeat IPC: 0.36825 cumulative IPC: 0.25101 (Simulation time: 0 hr 8 min 17 sec) 
Heartbeat CPU  2 instructions:   77000000 cycles:   71477228 heartbeat IPC: 0.17962 cumulative IPC: 0.23540 (Simulation time: 0 hr 8 min 18 sec) 
Heartbeat CPU  0 instructions:   60000000 cycles:   72791619 heartbeat IPC: 0.21533 cumulative IPC: 0.21307 (Simulation time: 0 hr 8 min 21 sec) 
Heartbeat CPU  1 instructions:   66000002 cycles:   73441484 heartbeat IPC: 0.39313 cumulative IPC: 0.25861 (Simulation time: 0 hr 8 min 22 sec) 
Heartbeat CPU  3 instructions:   70000000 cycles:   73698517 heartbeat IPC: 0.21278 cumulative IPC: 0.25160 (Simulation time: 0 hr 8 min 23 sec) 
Heartbeat CPU  0 instructions:   61000001 cycles:   77014001 heartbeat IPC: 0.23683 cumulative IPC: 0.21504 (Simulation time: 0 hr 8 min 30 sec) 
Heartbeat CPU  2 instructions:   78000000 cycles:   77096253 heartbeat IPC: 0.17797 cumulative IPC: 0.22910 (Simulation time: 0 hr 8 min 30 sec) 
Heartbeat CPU  1 instructions:   67000000 cycles:   78201509 heartbeat IPC: 0.21008 cumulative IPC: 0.25419 (Simulation time: 0 hr 8 min 32 sec) 
Heartbeat CPU  3 instructions:   71000000 cycles:   78373097 heartbeat IPC: 0.21392 cumulative IPC: 0.24824 (Simulation time: 0 hr 8 min 32 sec) 
Heartbeat CPU  0 instructions:   62000001 cycles:   81512361 heartbeat IPC: 0.22230 cumulative IPC: 0.21562 (Simulation time: 0 hr 8 min 38 sec) 
Heartbeat CPU  1 instructions:   68000000 cycles:   82877001 heartbeat IPC: 0.21388 cumulative IPC: 0.25089 (Simulation time: 0 hr 8 min 41 sec) 
Heartbeat CPU  2 instructions:   79000001 cycles:   82894461 heartbeat IPC: 0.17247 cumulative IPC: 0.22334 (Simulation time: 0 hr 8 min 41 sec) 
Heartbeat CPU  3 instructions:   72000000 cycles:   83030965 heartbeat IPC: 0.21469 cumulative IPC: 0.24551 (Simulation time: 0 hr 8 min 41 sec) 
Heartbeat CPU  0 instructions:   63000002 cycles:   86323857 heartbeat IPC: 0.20784 cumulative IPC: 0.21500 (Simulation time: 0 hr 8 min 48 sec) 
Heartbeat CPU  3 instructions:   73000000 cycles:   87160676 heartbeat IPC: 0.24215 cumulative IPC: 0.24528 (Simulation time: 0 hr 8 min 50 sec) 
Heartbeat CPU  1 instructions:   69000001 cycles:   87578875 heartbeat IPC: 0.21268 cumulative IPC: 0.24798 (Simulation time: 0 hr 8 min 51 sec) 
Heartbeat CPU  2 instructions:   80000000 cycles:   88621265 heartbeat IPC: 0.17462 cumulative IPC: 0.21890 (Simulation time: 0 hr 8 min 53 sec) 
Heartbeat CPU  0 instructions:   64000000 cycles:   91086999 heartbeat IPC: 0.20995 cumulative IPC: 0.21463 (Simulation time: 0 hr 8 min 58 sec) 
Heartbeat CPU  3 instructions:   74000002 cycles:   91790871 heartbeat IPC: 0.21597 cumulative IPC: 0.24322 (Simulation time: 0 hr 8 min 59 sec) 
Heartbeat CPU  1 instructions:   70000002 cycles:   92192331 heartbeat IPC: 0.21676 cumulative IPC: 0.24581 (Simulation time: 0 hr 9 min 0 sec) 
Heartbeat CPU  2 instructions:   81000001 cycles:   94343129 heartbeat IPC: 0.17477 cumulative IPC: 0.21521 (Simulation time: 0 hr 9 min 5 sec) 
Heartbeat CPU  3 instructions:   75000000 cycles:   94410395 heartbeat IPC: 0.38175 cumulative IPC: 0.24852 (Simulation time: 0 hr 9 min 5 sec) 
Heartbeat CPU  0 instructions:   65000002 cycles:   95933289 heartbeat IPC: 0.20634 cumulative IPC: 0.21406 (Simulation time: 0 hr 9 min 8 sec) 
Heartbeat CPU  1 instructions:   71000002 cycles:   96760156 heartbeat IPC: 0.21892 cumulative IPC: 0.24407 (Simulation time: 0 hr 9 min 9 sec) 
Heartbeat CPU  3 instructions:   76000000 cycles:   99185964 heartbeat IPC: 0.20940 cumulative IPC: 0.24597 (Simulation time: 0 hr 9 min 14 sec) 
Heartbeat CPU  2 instructions:   82000000 cycles:  100081848 heartbeat IPC: 0.17425 cumulative IPC: 0.21204 (Simulation time: 0 hr 9 min 16 sec) 
Heartbeat CPU  0 instructions:   66000001 cycles:  100715458 heartbeat IPC: 0.20911 cumulative IPC: 0.21374 (Simulation time: 0 hr 9 min 17 sec) 
Heartbeat CPU  1 instructions:   72000000 cycles:  101259177 heartbeat IPC: 0.22227 cumulative IPC: 0.24277 (Simulation time: 0 hr 9 min 18 sec) 
Heartbeat CPU  3 instructions:   77000000 cycles:  103779733 heartbeat IPC: 0.21769 cumulative IPC: 0.24430 (Simulation time: 0 hr 9 min 23 sec) 
Heartbeat CPU  0 instructions:   67000002 cycles:  105546276 heartbeat IPC: 0.20700 cumulative IPC: 0.21334 (Simulation time: 0 hr 9 min 27 sec) 
Heartbeat CPU  2 instructions:   83000003 cycles:  105844915 heartbeat IPC: 0.17352 cumulative IPC: 0.20927 (Simulation time: 0 hr 9 min 27 sec) 
Heartbeat CPU  1 instructions:   73000002 cycles:  105916548 heartbeat IPC: 0.21471 cumulative IPC: 0.24114 (Simulation time: 0 hr 9 min 27 sec) 
Heartbeat CPU  3 instructions:   78000002 cycles:  108600407 heartbeat IPC: 0.20744 cumulative IPC: 0.24215 (Simulation time: 0 hr 9 min 32 sec) 
Heartbeat CPU  0 instructions:   68000000 cycles:  110215175 heartbeat IPC: 0.21418 cumulative IPC: 0.21338 (Simulation time: 0 hr 9 min 36 sec) 
Heartbeat CPU  1 instructions:   74000000 cycles:  110629802 heartbeat IPC: 0.21217 cumulative IPC: 0.23953 (Simulation time: 0 hr 9 min 36 sec) 
Heartbeat CPU  2 instructions:   84000000 cycles:  111582015 heartbeat IPC: 0.17430 cumulative IPC: 0.20693 (Simulation time: 0 hr 9 min 38 sec) 
Heartbeat CPU  3 instructions:   79000002 cycles:  113132745 heartbeat IPC: 0.22064 cumulative IPC: 0.24104 (Simulation time: 0 hr 9 min 41 sec) 
Heartbeat CPU  0 instructions:   69000002 cycles:  114998865 heartbeat IPC: 0.20904 cumulative IPC: 0.21315 (Simulation time: 0 hr 9 min 45 sec) 
Heartbeat CPU  1 instructions:   75000000 cycles:  115207398 heartbeat IPC: 0.21846 cumulative IPC: 0.23845 (Simulation time: 0 hr 9 min 45 sec) 
Heartbeat CPU  2 instructions:   85000000 cycles:  117403277 heartbeat IPC: 0.17178 cumulative IPC: 0.20469 (Simulation time: 0 hr 9 min 50 sec) 
Heartbeat CPU  3 instructions:   80000000 cycles:  117894755 heartbeat IPC: 0.20999 cumulative IPC: 0.23943 (Simulation time: 0 hr 9 min 51 sec) 
Heartbeat CPU  1 instructions:   76000000 cycles:  119191101 heartbeat IPC: 0.25102 cumulative IPC: 0.23899 (Simulation time: 0 hr 9 min 53 sec) 
Heartbeat CPU  0 instructions:   70000001 cycles:  119788371 heartbeat IPC: 0.20879 cumulative IPC: 0.21293 (Simulation time: 0 hr 9 min 54 sec) 
Heartbeat CPU  3 instructions:   81000003 cycles:  122731131 heartbeat IPC: 0.20677 cumulative IPC: 0.23780 (Simulation time: 0 hr 10 min 0 sec) 
Heartbeat CPU  2 instructions:   86000003 cycles:  123153661 heartbeat IPC: 0.17390 cumulative IPC: 0.20287 (Simulation time: 0 hr 10 min 1 sec) 
Heartbeat CPU  1 instructions:   77000001 cycles:  123853084 heartbeat IPC: 0.21450 cumulative IPC: 0.23782 (Simulation time: 0 hr 10 min 2 sec) 
Heartbeat CPU  0 instructions:   71000001 cycles:  124491431 heartbeat IPC: 0.21263 cumulative IPC: 0.21291 (Simulation time: 0 hr 10 min 3 sec) 
Heartbeat CPU  3 instructions:   82000003 cycles:  127446234 heartbeat IPC: 0.21208 cumulative IPC: 0.23661 (Simulation time: 0 hr 10 min 9 sec) 
Heartbeat CPU  1 instructions:   78000001 cycles:  128513029 heartbeat IPC: 0.21459 cumulative IPC: 0.23677 (Simulation time: 0 hr 10 min 11 sec) 
Heartbeat CPU  2 instructions:   87000000 cycles:  128938040 heartbeat IPC: 0.17288 cumulative IPC: 0.20119 (Simulation time: 0 hr 10 min 12 sec) 
Heartbeat CPU  0 instructions:   72000000 cycles:  129133431 heartbeat IPC: 0.21542 cumulative IPC: 0.21303 (Simulation time: 0 hr 10 min 12 sec) 
Heartbeat CPU  3 instructions:   83000001 cycles:  132152169 heartbeat IPC: 0.21250 cumulative IPC: 0.23554 (Simulation time: 0 hr 10 min 18 sec) 
Heartbeat CPU  1 instructions:   79000002 cycles:  133142753 heartbeat IPC: 0.21600 cumulative IPC: 0.23587 (Simulation time: 0 hr 10 min 20 sec) 
Heartbeat CPU  0 instructions:   73000002 cycles:  133727131 heartbeat IPC: 0.21769 cumulative IPC: 0.21322 (Simulation time: 0 hr 10 min 21 sec) 
Heartbeat CPU  2 instructions:   88000000 cycles:  134845451 heartbeat IPC: 0.16928 cumulative IPC: 0.19946 (Simulation time: 0 hr 10 min 24 sec) 
Heartbeat CPU  3 instructions:   84000000 cycles:  136879934 heartbeat IPC: 0.21152 cumulative IPC: 0.23452 (Simulation time: 0 hr 10 min 28 sec) 
Heartbeat CPU  1 instructions:   80000000 cycles:  137844503 heartbeat IPC: 0.21269 cumulative IPC: 0.23490 (Simulation time: 0 hr 10 min 30 sec) 
Heartbeat CPU  0 instructions:   74000000 cycles:  138176616 heartbeat IPC: 0.22474 cumulative IPC: 0.21368 (Simulation time: 0 hr 10 min 30 sec) 
Heartbeat CPU  2 instructions:   89000000 cycles:  140671263 heartbeat IPC: 0.17165 cumulative IPC: 0.19805 (Simulation time: 0 hr 10 min 35 sec) 
Heartbeat CPU  3 instructions:   85000000 cycles:  141769064 heartbeat IPC: 0.20454 cumulative IPC: 0.23325 (Simulation time: 0 hr 10 min 37 sec) 
Heartbeat CPU  1 instructions:   81000000 cycles:  142615701 heartbeat IPC: 0.20959 cumulative IPC: 0.23386 (Simulation time: 0 hr 10 min 39 sec) 
Heartbeat CPU  0 instructions:   75000002 cycles:  142861738 heartbeat IPC: 0.21344 cumulative IPC: 0.21367 (Simulation time: 0 hr 10 min 39 sec) 
Heartbeat CPU  2 instructions:   90000000 cycles:  146349502 heartbeat IPC: 0.17611 cumulative IPC: 0.19702 (Simulation time: 0 hr 10 min 46 sec) 
Heartbeat CPU  3 instructions:   86000000 cycles:  146567377 heartbeat IPC: 0.20841 cumulative IPC: 0.23226 (Simulation time: 0 hr 10 min 46 sec) 
Heartbeat CPU  1 instructions:   82000003 cycles:  147291908 heartbeat IPC: 0.21385 cumulative IPC: 0.23309 (Simulation time: 0 hr 10 min 48 sec) 
Heartbeat CPU  0 instructions:   76000000 cycles:  147437167 heartbeat IPC: 0.21856 cumulative IPC: 0.21386 (Simulation time: 0 hr 10 min 48 sec) 
Heartbeat CPU  3 instructions:   87000002 cycles:  151336089 heartbeat IPC: 0.20970 cumulative IPC: 0.23141 (Simulation time: 0 hr 10 min 56 sec) 
Heartbeat CPU  0 instructions:   77000002 cycles:  151929360 heartbeat IPC: 0.22261 cumulative IPC: 0.21417 (Simulation time: 0 hr 10 min 57 sec) 
Heartbeat CPU  1 instructions:   83000002 cycles:  152120509 heartbeat IPC: 0.20710 cumulative IPC: 0.23210 (Simulation time: 0 hr 10 min 57 sec) 
Heartbeat CPU  2 instructions:   91000003 cycles:  152196590 heartbeat IPC: 0.17103 cumulative IPC: 0.19581 (Simulation time: 0 hr 10 min 57 sec) 
Heartbeat CPU  3 instructions:   88000000 cycles:  156159391 heartbeat IPC: 0.20733 cumulative IPC: 0.23051 (Simulation time: 0 hr 11 min 5 sec) 
Heartbeat CPU  0 instructions:   78000001 cycles:  156725243 heartbeat IPC: 0.20851 cumulative IPC: 0.21396 (Simulation time: 0 hr 11 min 6 sec) 
Heartbeat CPU  1 instructions:   84000000 cycles:  156931336 heartbeat IPC: 0.20786 cumulative IPC: 0.23121 (Simulation time: 0 hr 11 min 7 sec) 
Heartbeat CPU  2 instructions:   92000000 cycles:  158005626 heartbeat IPC: 0.17215 cumulative IPC: 0.19477 (Simulation time: 0 hr 11 min 9 sec) 
Heartbeat CPU  3 instructions:   89000000 cycles:  160691791 heartbeat IPC: 0.22063 cumulative IPC: 0.23018 (Simulation time: 0 hr 11 min 14 sec) 
Heartbeat CPU  0 instructions:   79000002 cycles:  161446115 heartbeat IPC: 0.21183 cumulative IPC: 0.21389 (Simulation time: 0 hr 11 min 15 sec) 
Heartbeat CPU  1 instructions:   85000000 cycles:  161845041 heartbeat IPC: 0.20351 cumulative IPC: 0.23021 (Simulation time: 0 hr 11 min 16 sec) 
Heartbeat CPU  2 instructions:   93000000 cycles:  163869936 heartbeat IPC: 0.17052 cumulative IPC: 0.19374 (Simulation time: 0 hr 11 min 20 sec) 
Heartbeat CPU  3 instructions:   90000000 cycles:  165354500 heartbeat IPC: 0.21447 cumulative IPC: 0.22966 (Simulation time: 0 hr 11 min 23 sec) 
Heartbeat CPU  0 instructions:   80000000 cycles:  166131772 heartbeat IPC: 0.21342 cumulative IPC: 0.21387 (Simulation time: 0 hr 11 min 25 sec) 
Heartbeat CPU  1 instructions:   86000002 cycles:  166570019 heartbeat IPC: 0.21164 cumulative IPC: 0.22959 (Simulation time: 0 hr 11 min 25 sec) 
Heartbeat CPU  2 instructions:   94000001 cycles:  169660501 heartbeat IPC: 0.17269 cumulative IPC: 0.19289 (Simulation time: 0 hr 11 min 31 sec) 
Heartbeat CPU  3 instructions:   91000003 cycles:  170071171 heartbeat IPC: 0.21201 cumulative IPC: 0.22908 (Simulation time: 0 hr 11 min 32 sec) 
Heartbeat CPU  0 instructions:   81000002 cycles:  170836506 heartbeat IPC: 0.21255 cumulative IPC: 0.21383 (Simulation time: 0 hr 11 min 34 sec) 
Heartbeat CPU  1 instructions:   87000001 cycles:  171288883 heartbeat IPC: 0.21192 cumulative IPC: 0.22901 (Simulation time: 0 hr 11 min 35 sec) 
Heartbeat CPU  3 instructions:   92000000 cycles:  174785944 heartbeat IPC: 0.21210 cumulative IPC: 0.22854 (Simulation time: 0 hr 11 min 42 sec) 
Heartbeat CPU  2 instructions:   95000002 cycles:  175461167 heartbeat IPC: 0.17239 cumulative IPC: 0.19210 (Simulation time: 0 hr 11 min 43 sec) 
Heartbeat CPU  0 instructions:   82000000 cycles:  175588643 heartbeat IPC: 0.21043 cumulative IPC: 0.21372 (Simulation time: 0 hr 11 min 43 sec) 
Heartbeat CPU  1 instructions:   88000000 cycles:  175952781 heartbeat IPC: 0.21441 cumulative IPC: 0.22856 (Simulation time: 0 hr 11 min 44 sec) 
Heartbeat CPU  3 instructions:   93000000 cycles:  179443373 heartbeat IPC: 0.21471 cumulative IPC: 0.22812 (Simulation time: 0 hr 11 min 51 sec) 
Heartbeat CPU  0 instructions:   83000000 cycles:  180522145 heartbeat IPC: 0.20270 cumulative IPC: 0.21337 (Simulation time: 0 hr 11 min 53 sec) 
Heartbeat CPU  1 instructions:   89000001 cycles:  180642875 heartbeat IPC: 0.21322 cumulative IPC: 0.22809 (Simulation time: 0 hr 11 min 53 sec) 
Heartbeat CPU  2 instructions:   96000000 cycles:  181249361 heartbeat IPC: 0.17277 cumulative IPC: 0.19138 (Simulation time: 0 hr 11 min 54 sec) 
Heartbeat CPU  3 instructions:   94000003 cycles:  184041875 heartbeat IPC: 0.21746 cumulative IPC: 0.22781 (Simulation time: 0 hr 12 min 0 sec) 
Heartbeat CPU  1 instructions:   90000003 cycles:  185246573 heartbeat IPC: 0.21722 cumulative IPC: 0.22778 (Simulation time: 0 hr 12 min 2 sec) 
Heartbeat CPU  0 instructions:   84000000 cycles:  185415485 heartbeat IPC: 0.20436 cumulative IPC: 0.21309 (Simulation time: 0 hr 12 min 3 sec) 
Heartbeat CPU  2 instructions:   97000003 cycles:  187037522 heartbeat IPC: 0.17277 cumulative IPC: 0.19071 (Simulation time: 0 hr 12 min 6 sec) 
Heartbeat CPU  3 instructions:   95000002 cycles:  188752904 heartbeat IPC: 0.21227 cumulative IPC: 0.22736 (Simulation time: 0 hr 12 min 9 sec) 
Heartbeat CPU  1 instructions:   91000001 cycles:  189868461 heartbeat IPC: 0.21636 cumulative IPC: 0.22746 (Simulation time: 0 hr 12 min 11 sec) 
Heartbeat CPU  0 instructions:   85000002 cycles:  190307101 heartbeat IPC: 0.20443 cumulative IPC: 0.21283 (Simulation time: 0 hr 12 min 12 sec) 
Heartbeat CPU  2 instructions:   98000003 cycles:  192812702 heartbeat IPC: 0.17315 cumulative IPC: 0.19010 (Simulation time: 0 hr 12 min 17 sec) 
Heartbeat CPU  3 instructions:   96000000 cycles:  193473478 heartbeat IPC: 0.21184 cumulative IPC: 0.22693 (Simulation time: 0 hr 12 min 18 sec) 
Heartbeat CPU  1 instructions:   92000000 cycles:  194532229 heartbeat IPC: 0.21442 cumulative IPC: 0.22710 (Simulation time: 0 hr 12 min 21 sec) 
Heartbeat CPU  0 instructions:   86000003 cycles:  195080673 heartbeat IPC: 0.20949 cumulative IPC: 0.21274 (Simulation time: 0 hr 12 min 22 sec) 
Heartbeat CPU  3 instructions:   97000001 cycles:  198071600 heartbeat IPC: 0.21748 cumulative IPC: 0.22667 (Simulation time: 0 hr 12 min 27 sec) 
Heartbeat CPU  2 instructions:   99000000 cycles:  198470875 heartbeat IPC: 0.17673 cumulative IPC: 0.18967 (Simulation time: 0 hr 12 min 28 sec) 
Heartbeat CPU  1 instructions:   93000002 cycles:  199106722 heartbeat IPC: 0.21860 cumulative IPC: 0.22687 (Simulation time: 0 hr 12 min 29 sec) 
Heartbeat CPU  0 instructions:   87000001 cycles:  199857122 heartbeat IPC: 0.20936 cumulative IPC: 0.21265 (Simulation time: 0 hr 12 min 31 sec) 
Heartbeat CPU  3 instructions:   98000002 cycles:  202712467 heartbeat IPC: 0.21548 cumulative IPC: 0.22638 (Simulation time: 0 hr 12 min 37 sec) 
Heartbeat CPU  1 instructions:   94000002 cycles:  203705703 heartbeat IPC: 0.21744 cumulative IPC: 0.22663 (Simulation time: 0 hr 12 min 39 sec) 
*** Reached end of trace for Core: 2 Repeating trace: /data3/STREAMING/traces/streaming_phase4_core2.trace.xz
Heartbeat CPU  2 instructions:  100000000 cycles:  204058297 heartbeat IPC: 0.17897 cumulative IPC: 0.18933 (Simulation time: 0 hr 12 min 39 sec) 
Heartbeat CPU  0 instructions:   88000000 cycles:  204766749 heartbeat IPC: 0.20368 cumulative IPC: 0.21240 (Simulation time: 0 hr 12 min 41 sec) 
Heartbeat CPU  3 instructions:   99000003 cycles:  207245272 heartbeat IPC: 0.22061 cumulative IPC: 0.22624 (Simulation time: 0 hr 12 min 46 sec) 
Heartbeat CPU  1 instructions:   95000000 cycles:  208323925 heartbeat IPC: 0.21653 cumulative IPC: 0.22637 (Simulation time: 0 hr 12 min 48 sec) 
Heartbeat CPU  0 instructions:   89000000 cycles:  209443907 heartbeat IPC: 0.21381 cumulative IPC: 0.21244 (Simulation time: 0 hr 12 min 50 sec) 
Heartbeat CPU  2 instructions:  101000001 cycles:  209573609 heartbeat IPC: 0.18131 cumulative IPC: 0.18909 (Simulation time: 0 hr 12 min 50 sec) 
*** Reached end of trace for Core: 3 Repeating trace: /data3/STREAMING/traces/streaming_phase4_core3.trace.xz
Heartbeat CPU  3 instructions:  100000000 cycles:  211891931 heartbeat IPC: 0.21521 cumulative IPC: 0.22596 (Simulation time: 0 hr 12 min 55 sec) 
Heartbeat CPU  1 instructions:   96000000 cycles:  212990450 heartbeat IPC: 0.21429 cumulative IPC: 0.22607 (Simulation time: 0 hr 12 min 57 sec) 
Heartbeat CPU  0 instructions:   90000003 cycles:  214080046 heartbeat IPC: 0.21570 cumulative IPC: 0.21252 (Simulation time: 0 hr 12 min 59 sec) 
Heartbeat CPU  2 instructions:  102000002 cycles:  215411980 heartbeat IPC: 0.17128 cumulative IPC: 0.18854 (Simulation time: 0 hr 13 min 2 sec) 
Heartbeat CPU  3 instructions:  101000001 cycles:  216584196 heartbeat IPC: 0.21312 cumulative IPC: 0.22564 (Simulation time: 0 hr 13 min 4 sec) 
Heartbeat CPU  1 instructions:   97000003 cycles:  217493386 heartbeat IPC: 0.22208 cumulative IPC: 0.22598 (Simulation time: 0 hr 13 min 6 sec) 
Heartbeat CPU  0 instructions:   91000000 cycles:  218766169 heartbeat IPC: 0.21340 cumulative IPC: 0.21254 (Simulation time: 0 hr 13 min 8 sec) 
Heartbeat CPU  2 instructions:  103000003 cycles:  219134205 heartbeat IPC: 0.26866 cumulative IPC: 0.19008 (Simulation time: 0 hr 13 min 9 sec) 
Heartbeat CPU  2 instructions:  104000000 cycles:  221136420 heartbeat IPC: 0.49945 cumulative IPC: 0.19326 (Simulation time: 0 hr 13 min 14 sec) 
Heartbeat CPU  3 instructions:  102000000 cycles:  221220069 heartbeat IPC: 0.21571 cumulative IPC: 0.22541 (Simulation time: 0 hr 13 min 15 sec) 
Heartbeat CPU  1 instructions:   98000003 cycles:  222039724 heartbeat IPC: 0.21996 cumulative IPC: 0.22584 (Simulation time: 0 hr 13 min 16 sec) 
Heartbeat CPU  2 instructions:  105000002 cycles:  223244619 heartbeat IPC: 0.47434 cumulative IPC: 0.19626 (Simulation time: 0 hr 13 min 20 sec) 
Heartbeat CPU  0 instructions:   92000000 cycles:  223461147 heartbeat IPC: 0.21299 cumulative IPC: 0.21255 (Simulation time: 0 hr 13 min 20 sec) 
Heartbeat CPU  2 instructions:  106000002 cycles:  225244335 heartbeat IPC: 0.50007 cumulative IPC: 0.19930 (Simulation time: 0 hr 13 min 24 sec) 
Heartbeat CPU  3 instructions:  103000000 cycles:  225908355 heartbeat IPC: 0.21330 cumulative IPC: 0.22513 (Simulation time: 0 hr 13 min 26 sec) 
Heartbeat CPU  1 instructions:   99000000 cycles:  226685053 heartbeat IPC: 0.21527 cumulative IPC: 0.22559 (Simulation time: 0 hr 13 min 28 sec) 
Heartbeat CPU  2 instructions:  107000003 cycles:  227158689 heartbeat IPC: 0.52237 cumulative IPC: 0.20238 (Simulation time: 0 hr 13 min 29 sec) 
Heartbeat CPU  0 instructions:   93000000 cycles:  228156804 heartbeat IPC: 0.21296 cumulative IPC: 0.21256 (Simulation time: 0 hr 13 min 32 sec) 
Heartbeat CPU  2 instructions:  108000000 cycles:  229060315 heartbeat IPC: 0.52586 cumulative IPC: 0.20540 (Simulation time: 0 hr 13 min 34 sec) 
Heartbeat CPU  3 instructions:  104000000 cycles:  230604322 heartbeat IPC: 0.21295 cumulative IPC: 0.22485 (Simulation time: 0 hr 13 min 38 sec) 
Heartbeat CPU  2 instructions:  109000001 cycles:  230906935 heartbeat IPC: 0.54153 cumulative IPC: 0.20843 (Simulation time: 0 hr 13 min 38 sec) 
*** Reached end of trace for Core: 1 Repeating trace: /data3/STREAMING/traces/streaming_phase4_core1.trace.xz
Heartbeat CPU  1 instructions:  100000000 cycles:  231439233 heartbeat IPC: 0.21034 cumulative IPC: 0.22524 (Simulation time: 0 hr 13 min 40 sec) 
Heartbeat CPU  2 instructions:  110000002 cycles:  232757978 heartbeat IPC: 0.54024 cumulative IPC: 0.21140 (Simulation time: 0 hr 13 min 43 sec) 
Heartbeat CPU  0 instructions:   94000003 cycles:  232854133 heartbeat IPC: 0.21289 cumulative IPC: 0.21257 (Simulation time: 0 hr 13 min 43 sec) 
Heartbeat CPU  2 instructions:  111000001 cycles:  234722791 heartbeat IPC: 0.50895 cumulative IPC: 0.21420 (Simulation time: 0 hr 13 min 48 sec) 
Heartbeat CPU  3 instructions:  105000003 cycles:  235365133 heartbeat IPC: 0.21005 cumulative IPC: 0.22451 (Simulation time: 0 hr 13 min 49 sec) 
Heartbeat CPU  1 instructions:  101000003 cycles:  236157171 heartbeat IPC: 0.21196 cumulative IPC: 0.22494 (Simulation time: 0 hr 13 min 51 sec) 
Heartbeat CPU  2 instructions:  112000000 cycles:  236657211 heartbeat IPC: 0.51695 cumulative IPC: 0.21698 (Simulation time: 0 hr 13 min 52 sec) 
Heartbeat CPU  0 instructions:   95000000 cycles:  237505612 heartbeat IPC: 0.21498 cumulative IPC: 0.21262 (Simulation time: 0 hr 13 min 55 sec) 
Heartbeat CPU  2 instructions:  113000003 cycles:  239420790 heartbeat IPC: 0.36185 cumulative IPC: 0.21885 (Simulation time: 0 hr 13 min 59 sec) 
Heartbeat CPU  3 instructions:  106000002 cycles:  240128162 heartbeat IPC: 0.20995 cumulative IPC: 0.22419 (Simulation time: 0 hr 14 min 0 sec) 
Heartbeat CPU  1 instructions:  102000001 cycles:  240841946 heartbeat IPC: 0.21346 cumulative IPC: 0.22469 (Simulation time: 0 hr 14 min 1 sec) 
Heartbeat CPU  0 instructions:   96000000 cycles:  242085745 heartbeat IPC: 0.21833 cumulative IPC: 0.21274 (Simulation time: 0 hr 14 min 4 sec) 
Heartbeat CPU  3 instructions:  107000001 cycles:  244791824 heartbeat IPC: 0.21442 cumulative IPC: 0.22398 (Simulation time: 0 hr 14 min 9 sec) 
Heartbeat CPU  2 instructions:  114000001 cycles:  245418303 heartbeat IPC: 0.16674 cumulative IPC: 0.21743 (Simulation time: 0 hr 14 min 10 sec) 
Heartbeat CPU  1 instructions:  103000000 cycles:  245514606 heartbeat IPC: 0.21401 cumulative IPC: 0.22447 (Simulation time: 0 hr 14 min 10 sec) 
Heartbeat CPU  0 instructions:   97000001 cycles:  246721983 heartbeat IPC: 0.21569 cumulative IPC: 0.21280 (Simulation time: 0 hr 14 min 13 sec) 
Heartbeat CPU  3 instructions:  108000000 cycles:  249540357 heartbeat IPC: 0.21059 cumulative IPC: 0.22369 (Simulation time: 0 hr 14 min 18 sec) 
Heartbeat CPU  1 instructions:  104000000 cycles:  250184188 heartbeat IPC: 0.21415 cumulative IPC: 0.22425 (Simulation time: 0 hr 14 min 19 sec) 
Heartbeat CPU  2 instructions:  115000001 cycles:  251306869 heartbeat IPC: 0.16982 cumulative IPC: 0.21619 (Simulation time: 0 hr 14 min 22 sec) 
Heartbeat CPU  0 instructions:   98000003 cycles:  251313705 heartbeat IPC: 0.21778 cumulative IPC: 0.21290 (Simulation time: 0 hr 14 min 22 sec) 
Heartbeat CPU  3 instructions:  109000000 cycles:  254164220 heartbeat IPC: 0.21627 cumulative IPC: 0.22354 (Simulation time: 0 hr 14 min 27 sec) 
Heartbeat CPU  1 instructions:  105000003 cycles:  254893311 heartbeat IPC: 0.21235 cumulative IPC: 0.22401 (Simulation time: 0 hr 14 min 29 sec) 
Heartbeat CPU  2 instructions:  116000000 cycles:  255712066 heartbeat IPC: 0.22700 cumulative IPC: 0.21639 (Simulation time: 0 hr 14 min 31 sec) 
Heartbeat CPU  0 instructions:   99000003 cycles:  255945894 heartbeat IPC: 0.21588 cumulative IPC: 0.21296 (Simulation time: 0 hr 14 min 31 sec) 
Heartbeat CPU  2 instructions:  117000000 cycles:  257583817 heartbeat IPC: 0.53426 cumulative IPC: 0.21896 (Simulation time: 0 hr 14 min 35 sec) 
Heartbeat CPU  3 instructions:  110000003 cycles:  258847060 heartbeat IPC: 0.21355 cumulative IPC: 0.22334 (Simulation time: 0 hr 14 min 38 sec) 
Heartbeat CPU  2 instructions:  118000002 cycles:  259448258 heartbeat IPC: 0.53635 cumulative IPC: 0.22149 (Simulation time: 0 hr 14 min 40 sec) 
Heartbeat CPU  1 instructions:  106000001 cycles:  259495340 heartbeat IPC: 0.21730 cumulative IPC: 0.22387 (Simulation time: 0 hr 14 min 40 sec) 
*** Reached end of trace for Core: 0 Repeating trace: /data3/STREAMING/traces/streaming_phase4_core0.trace.xz
Heartbeat CPU  0 instructions:  100000000 cycles:  260614830 heartbeat IPC: 0.21418 cumulative IPC: 0.21299 (Simulation time: 0 hr 14 min 43 sec) 
Heartbeat CPU  2 instructions:  119000003 cycles:  261325075 heartbeat IPC: 0.53282 cumulative IPC: 0.22397 (Simulation time: 0 hr 14 min 44 sec) 
Heartbeat CPU  2 instructions:  120000000 cycles:  263229365 heartbeat IPC: 0.52513 cumulative IPC: 0.22639 (Simulation time: 0 hr 14 min 49 sec) 
Heartbeat CPU  3 instructions:  111000002 cycles:  263584735 heartbeat IPC: 0.21107 cumulative IPC: 0.22310 (Simulation time: 0 hr 14 min 50 sec) 
Heartbeat CPU  1 instructions:  107000000 cycles:  264316626 heartbeat IPC: 0.20741 cumulative IPC: 0.22354 (Simulation time: 0 hr 14 min 52 sec) 
Heartbeat CPU  2 instructions:  121000001 cycles:  265081720 heartbeat IPC: 0.53985 cumulative IPC: 0.22882 (Simulation time: 0 hr 14 min 54 sec) 
Heartbeat CPU  0 instructions:  101000000 cycles:  265324349 heartbeat IPC: 0.21234 cumulative IPC: 0.21298 (Simulation time: 0 hr 14 min 54 sec) 
Heartbeat CPU  2 instructions:  122000001 cycles:  266939098 heartbeat IPC: 0.53839 cumulative IPC: 0.23120 (Simulation time: 0 hr 14 min 58 sec) 
Heartbeat CPU  3 instructions:  112000000 cycles:  268290440 heartbeat IPC: 0.21251 cumulative IPC: 0.22289 (Simulation time: 0 hr 15 min 1 sec) 
Heartbeat CPU  2 instructions:  123000001 cycles:  268786520 heartbeat IPC: 0.54129 cumulative IPC: 0.23356 (Simulation time: 0 hr 15 min 3 sec) 
Heartbeat CPU  1 instructions:  108000000 cycles:  269043810 heartbeat IPC: 0.21154 cumulative IPC: 0.22331 (Simulation time: 0 hr 15 min 3 sec) 
Heartbeat CPU  0 instructions:  102000000 cycles:  270020968 heartbeat IPC: 0.21292 cumulative IPC: 0.21297 (Simulation time: 0 hr 15 min 6 sec) 
Heartbeat CPU  2 instructions:  124000000 cycles:  270623129 heartbeat IPC: 0.54448 cumulative IPC: 0.23589 (Simulation time: 0 hr 15 min 7 sec) 
Heartbeat CPU  3 instructions:  113000000 cycles:  273059163 heartbeat IPC: 0.20970 cumulative IPC: 0.22264 (Simulation time: 0 hr 15 min 12 sec) 
Heartbeat CPU  1 instructions:  109000000 cycles:  273811622 heartbeat IPC: 0.20974 cumulative IPC: 0.22305 (Simulation time: 0 hr 15 min 14 sec) 
Heartbeat CPU  0 instructions:  103000000 cycles:  274853615 heartbeat IPC: 0.20693 cumulative IPC: 0.21286 (Simulation time: 0 hr 15 min 16 sec) 
Heartbeat CPU  2 instructions:  125000003 cycles:  275755464 heartbeat IPC: 0.19484 cumulative IPC: 0.23505 (Simulation time: 0 hr 15 min 17 sec) 
Heartbeat CPU  3 instructions:  114000000 cycles:  277852009 heartbeat IPC: 0.20864 cumulative IPC: 0.22237 (Simulation time: 0 hr 15 min 21 sec) 
Heartbeat CPU  1 instructions:  110000003 cycles:  278427039 heartbeat IPC: 0.21667 cumulative IPC: 0.22293 (Simulation time: 0 hr 15 min 23 sec) 
Heartbeat CPU  0 instructions:  104000000 cycles:  279476623 heartbeat IPC: 0.21631 cumulative IPC: 0.21292 (Simulation time: 0 hr 15 min 25 sec) 
Heartbeat CPU  2 instructions:  126000000 cycles:  281656144 heartbeat IPC: 0.16947 cumulative IPC: 0.23354 (Simulation time: 0 hr 15 min 29 sec) 
Heartbeat CPU  3 instructions:  115000000 cycles:  282586082 heartbeat IPC: 0.21123 cumulative IPC: 0.22217 (Simulation time: 0 hr 15 min 31 sec) 
Heartbeat CPU  1 instructions:  111000003 cycles:  283063279 heartbeat IPC: 0.21569 cumulative IPC: 0.22280 (Simulation time: 0 hr 15 min 32 sec) 
Heartbeat CPU  0 instructions:  105000000 cycles:  284166614 heartbeat IPC: 0.21322 cumulative IPC: 0.21293 (Simulation time: 0 hr 15 min 34 sec) 
Heartbeat CPU  2 instructions:  127000000 cycles:  286403938 heartbeat IPC: 0.21062 cumulative IPC: 0.23312 (Simulation time: 0 hr 15 min 38 sec) 
Heartbeat CPU  3 instructions:  116000000 cycles:  287466062 heartbeat IPC: 0.20492 cumulative IPC: 0.22184 (Simulation time: 0 hr 15 min 41 sec) 
Heartbeat CPU  1 instructions:  112000000 cycles:  287611227 heartbeat IPC: 0.21988 cumulative IPC: 0.22275 (Simulation time: 0 hr 15 min 41 sec) 
Heartbeat CPU  0 instructions:  106000003 cycles:  288830481 heartbeat IPC: 0.21441 cumulative IPC: 0.21295 (Simulation time: 0 hr 15 min 43 sec) 
Heartbeat CPU  3 instructions:  117000001 cycles:  292017669 heartbeat IPC: 0.21970 cumulative IPC: 0.22181 (Simulation time: 0 hr 15 min 49 sec) 
Heartbeat CPU  2 instructions:  128000000 cycles:  292100030 heartbeat IPC: 0.17556 cumulative IPC: 0.23189 (Simulation time: 0 hr 15 min 50 sec) 
Heartbeat CPU  1 instructions:  113000000 cycles:  292209230 heartbeat IPC: 0.21749 cumulative IPC: 0.22266 (Simulation time: 0 hr 15 min 50 sec) 
Heartbeat CPU  0 instructions:  107000001 cycles:  293455674 heartbeat IPC: 0.21621 cumulative IPC: 0.21301 (Simulation time: 0 hr 15 min 52 sec) 
Heartbeat CPU  3 instructions:  118000000 cycles:  296632212 heartbeat IPC: 0.21671 cumulative IPC: 0.22172 (Simulation time: 0 hr 15 min 58 sec) 
Heartbeat CPU  1 instructions:  114000000 cycles:  297018862 heartbeat IPC: 0.20792 cumulative IPC: 0.22240 (Simulation time: 0 hr 15 min 59 sec) 
Heartbeat CPU  2 instructions:  129000001 cycles:  297889425 heartbeat IPC: 0.17273 cumulative IPC: 0.23063 (Simulation time: 0 hr 16 min 1 sec) 
Heartbeat CPU  0 instructions:  108000000 cycles:  298093960 heartbeat IPC: 0.21560 cumulative IPC: 0.21305 (Simulation time: 0 hr 16 min 1 sec) 
Heartbeat CPU  3 instructions:  119000002 cycles:  301242627 heartbeat IPC: 0.21690 cumulative IPC: 0.22164 (Simulation time: 0 hr 16 min 8 sec) 
Heartbeat CPU  1 instructions:  115000000 cycles:  301801749 heartbeat IPC: 0.20908 cumulative IPC: 0.22217 (Simulation time: 0 hr 16 min 9 sec) 
Heartbeat CPU  2 instructions:  130000001 cycles:  302205529 heartbeat IPC: 0.23169 cumulative IPC: 0.23065 (Simulation time: 0 hr 16 min 10 sec) 
Heartbeat CPU  0 instructions:  109000003 cycles:  302725749 heartbeat IPC: 0.21590 cumulative IPC: 0.21310 (Simulation time: 0 hr 16 min 11 sec) 
Heartbeat CPU  2 instructions:  131000001 cycles:  304015019 heartbeat IPC: 0.55264 cumulative IPC: 0.23274 (Simulation time: 0 hr 16 min 14 sec) 
Heartbeat CPU  2 instructions:  132000000 cycles:  305926254 heartbeat IPC: 0.52322 cumulative IPC: 0.23472 (Simulation time: 0 hr 16 min 19 sec) 
Heartbeat CPU  3 instructions:  120000000 cycles:  306034567 heartbeat IPC: 0.20868 cumulative IPC: 0.22142 (Simulation time: 0 hr 16 min 19 sec) 
Heartbeat CPU  1 instructions:  116000000 cycles:  306522663 heartbeat IPC: 0.21182 cumulative IPC: 0.22199 (Simulation time: 0 hr 16 min 20 sec) 
Heartbeat CPU  0 instructions:  110000000 cycles:  307317597 heartbeat IPC: 0.21778 cumulative IPC: 0.21318 (Simulation time: 0 hr 16 min 22 sec) 
Heartbeat CPU  2 instructions:  133000003 cycles:  309286862 heartbeat IPC: 0.29757 cumulative IPC: 0.23547 (Simulation time: 0 hr 16 min 26 sec) 
Heartbeat CPU  3 instructions:  121000000 cycles:  310795340 heartbeat IPC: 0.21005 cumulative IPC: 0.22123 (Simulation time: 0 hr 16 min 29 sec) 
Heartbeat CPU  1 instructions:  117000001 cycles:  311284101 heartbeat IPC: 0.21002 cumulative IPC: 0.22179 (Simulation time: 0 hr 16 min 30 sec) 
Heartbeat CPU  0 instructions:  111000001 cycles:  312080839 heartbeat IPC: 0.20994 cumulative IPC: 0.21312 (Simulation time: 0 hr 16 min 31 sec) 
Heartbeat CPU  2 instructions:  134000002 cycles:  315247388 heartbeat IPC: 0.16777 cumulative IPC: 0.23407 (Simulation time: 0 hr 16 min 38 sec) 
Heartbeat CPU  3 instructions:  122000000 cycles:  315548745 heartbeat IPC: 0.21038 cumulative IPC: 0.22105 (Simulation time: 0 hr 16 min 38 sec) 
Heartbeat CPU  1 instructions:  118000003 cycles:  316015972 heartbeat IPC: 0.21133 cumulative IPC: 0.22162 (Simulation time: 0 hr 16 min 39 sec) 
Heartbeat CPU  0 instructions:  112000000 cycles:  316825193 heartbeat IPC: 0.21078 cumulative IPC: 0.21308 (Simulation time: 0 hr 16 min 41 sec) 
Heartbeat CPU  3 instructions:  123000001 cycles:  320266025 heartbeat IPC: 0.21199 cumulative IPC: 0.22091 (Simulation time: 0 hr 16 min 47 sec) 
Heartbeat CPU  1 instructions:  119000001 cycles:  320701347 heartbeat IPC: 0.21343 cumulative IPC: 0.22149 (Simulation time: 0 hr 16 min 48 sec) 
Heartbeat CPU  2 instructions:  135000003 cycles:  321178156 heartbeat IPC: 0.16861 cumulative IPC: 0.23276 (Simulation time: 0 hr 16 min 49 sec) 
Heartbeat CPU  0 instructions:  113000001 cycles:  321596828 heartbeat IPC: 0.20957 cumulative IPC: 0.21303 (Simulation time: 0 hr 16 min 50 sec) 
Heartbeat CPU  3 instructions:  124000000 cycles:  324732536 heartbeat IPC: 0.22389 cumulative IPC: 0.22095 (Simulation time: 0 hr 16 min 56 sec) 
Heartbeat CPU  1 instructions:  120000000 cycles:  325409055 heartbeat IPC: 0.21242 cumulative IPC: 0.22135 (Simulation time: 0 hr 16 min 57 sec) 
Heartbeat CPU  2 instructions:  136000000 cycles:  325903639 heartbeat IPC: 0.21162 cumulative IPC: 0.23243 (Simulation time: 0 hr 16 min 58 sec) 
Heartbeat CPU  0 instructions:  114000001 cycles:  326344595 heartbeat IPC: 0.21063 cumulative IPC: 0.21299 (Simulation time: 0 hr 17 min 0 sec) 
Heartbeat CPU  2 instructions:  137000001 cycles:  327396840 heartbeat IPC: 0.66970 cumulative IPC: 0.23459 (Simulation time: 0 hr 17 min 2 sec) 
Heartbeat CPU  2 instructions:  138000003 cycles:  328549217 heartbeat IPC: 0.86777 cumulative IPC: 0.23700 (Simulation time: 0 hr 17 min 6 sec) 
Heartbeat CPU  3 instructions:  125000002 cycles:  329576312 heartbeat IPC: 0.20645 cumulative IPC: 0.22072 (Simulation time: 0 hr 17 min 9 sec) 
Heartbeat CPU  2 instructions:  139000002 cycles:  329670704 heartbeat IPC: 0.89167 cumulative IPC: 0.23942 (Simulation time: 0 hr 17 min 9 sec) 
Heartbeat CPU  1 instructions:  121000000 cycles:  330015297 heartbeat IPC: 0.21710 cumulative IPC: 0.22128 (Simulation time: 0 hr 17 min 10 sec) 
Heartbeat CPU  0 instructions:  115000002 cycles:  331047803 heartbeat IPC: 0.21262 cumulative IPC: 0.21298 (Simulation time: 0 hr 17 min 12 sec) 
Heartbeat CPU  2 instructions:  140000000 cycles:  333416525 heartbeat IPC: 0.26696 cumulative IPC: 0.23976 (Simulation time: 0 hr 17 min 17 sec) 
Heartbeat CPU  3 instructions:  126000003 cycles:  334152389 heartbeat IPC: 0.21853 cumulative IPC: 0.22069 (Simulation time: 0 hr 17 min 19 sec) 
Heartbeat CPU  1 instructions:  122000002 cycles:  334656815 heartbeat IPC: 0.21545 cumulative IPC: 0.22120 (Simulation time: 0 hr 17 min 20 sec) 
Heartbeat CPU  2 instructions:  141000002 cycles:  335398787 heartbeat IPC: 0.50448 cumulative IPC: 0.24145 (Simulation time: 0 hr 17 min 22 sec) 
Heartbeat CPU  0 instructions:  116000000 cycles:  335773280 heartbeat IPC: 0.21162 cumulative IPC: 0.21296 (Simulation time: 0 hr 17 min 23 sec) 
Heartbeat CPU  2 instructions:  142000002 cycles:  338507980 heartbeat IPC: 0.32163 cumulative IPC: 0.24225 (Simulation time: 0 hr 17 min 28 sec) 
Heartbeat CPU  3 instructions:  127000002 cycles:  338677869 heartbeat IPC: 0.22097 cumulative IPC: 0.22069 (Simulation time: 0 hr 17 min 29 sec) 
Heartbeat CPU  1 instructions:  123000002 cycles:  339304029 heartbeat IPC: 0.21518 cumulative IPC: 0.22111 (Simulation time: 0 hr 17 min 31 sec) 
Heartbeat CPU  2 instructions:  143000002 cycles:  339623019 heartbeat IPC: 0.89683 cumulative IPC: 0.24457 (Simulation time: 0 hr 17 min 32 sec) 
Heartbeat CPU  0 instructions:  117000003 cycles:  340455236 heartbeat IPC: 0.21359 cumulative IPC: 0.21297 (Simulation time: 0 hr 17 min 34 sec) 
Heartbeat CPU  2 instructions:  144000000 cycles:  340689982 heartbeat IPC: 0.93724 cumulative IPC: 0.24692 (Simulation time: 0 hr 17 min 35 sec) 
Heartbeat CPU  2 instructions:  145000002 cycles:  341821963 heartbeat IPC: 0.88341 cumulative IPC: 0.24920 (Simulation time: 0 hr 17 min 38 sec) 
Heartbeat CPU  2 instructions:  146000003 cycles:  342977729 heartbeat IPC: 0.86523 cumulative IPC: 0.25145 (Simulation time: 0 hr 17 min 41 sec) 
Heartbeat CPU  3 instructions:  128000000 cycles:  343270789 heartbeat IPC: 0.21773 cumulative IPC: 0.22065 (Simulation time: 0 hr 17 min 42 sec) 
Heartbeat CPU  1 instructions:  124000000 cycles:  343959737 heartbeat IPC: 0.21479 cumulative IPC: 0.22102 (Simulation time: 0 hr 17 min 44 sec) 
Heartbeat CPU  2 instructions:  147000000 cycles:  344446256 heartbeat IPC: 0.68095 cumulative IPC: 0.25343 (Simulation time: 0 hr 17 min 45 sec) 
Heartbeat CPU  0 instructions:  118000001 cycles:  345015688 heartbeat IPC: 0.21928 cumulative IPC: 0.21306 (Simulation time: 0 hr 17 min 47 sec) 
[...]
depth_2_delta_-5 3689
depth_2_delta_-32 2882
depth_2_delta_-6 2336
depth_2_delta_10 2010
depth_2_delta_-46 1490
depth_2_delta_11 1302
depth_2_delta_-16 840
depth_2_delta_8 735
depth_2_delta_-26 633
depth_2_delta_30 628
depth_2_delta_-4 605
depth_2_delta_4 396
depth_2_delta_26 383
depth_2_delta_-10 247
depth_2_delta_23 188
depth_2_delta_21 178
depth_2_delta_-27 175
depth_2_delta_-21 157
depth_2_delta_32 143
depth_2_delta_46 96
depth_2_delta_-14 94
depth_2_delta_19 76
depth_2_delta_-24 39
depth_2_delta_24 33
depth_2_delta_29 22
depth_2_delta_-29 19
depth_2_delta_-13 18
depth_2_delta_-18 13
depth_2_delta_28 13
depth_2_delta_41 13
depth_2_delta_-30 11
depth_2_delta_50 11
depth_2_delta_17 11
depth_2_delta_22 9
depth_2_delta_14 8
depth_2_delta_-25 3
depth_2_delta_-12 2
depth_2_delta_20 2
depth_2_delta_-20 2
depth_2_delta_18 1
depth_3_delta_1 298538
depth_3_delta_-1 61897
depth_3_delta_-33 8159
depth_3_delta_15 5971
depth_3_delta_-15 5029
depth_3_delta_-17 1386
depth_3_delta_2 988
depth_3_delta_-9 987
depth_3_delta_6 903
depth_3_delta_25 659
depth_3_delta_31 578
depth_3_delta_3 476
depth_3_delta_7 374
depth_3_delta_-8 359
depth_3_delta_-2 234
depth_3_delta_-11 124
depth_3_delta_5 101
depth_3_delta_-6 80
depth_3_delta_-46 53
depth_3_delta_-4 30
depth_3_delta_9 20
depth_3_delta_-5 9
depth_3_delta_21 4
depth_3_delta_4 4
depth_3_delta_-7 3
depth_3_delta_-16 2
depth_3_delta_10 1
depth_3_delta_-3 1
depth_3_delta_11 1
depth_4_delta_1 94808
depth_4_delta_-1 8430
depth_4_delta_-33 1680
depth_4_delta_-15 1137
depth_4_delta_15 1001
depth_4_delta_2 39
depth_4_delta_-11 34
depth_4_delta_7 7
depth_5_delta_1 27057
depth_5_delta_-1 398
depth_5_delta_15 80
depth_5_delta_-15 62
depth_6_delta_1 4683
depth_6_delta_-1 9
depth_6_delta_15 2
depth_6_delta_-15 2
depth_7_delta_1 695

spp.pref.total 9388780
spp.pref.at_L2 312251
spp.pref.at_LLC 9076529

spp.depth.max 11
spp.depth.min 0
spp.depth.avg 1

spp.breadth.max 2
spp.breadth.min 0
spp.breadth.avg 0

delta_1 10271659
delta_-1 585889
delta_2 358767
delta_5 195930
delta_3 117668
delta_-3 79459
delta_6 63770
delta_-7 57086
delta_-2 56804
delta_9 51537
delta_-17 48770
delta_15 47581
delta_7 47534
delta_-33 46037
delta_-15 45137
delta_-11 43813
delta_4 43779
delta_-9 43325
delta_-8 43285
delta_-5 42772
delta_-4 41805
delta_31 28911
delta_12 27105
delta_-32 26724
delta_30 24380
delta_-10 22838
delta_10 20334
delta_26 18095
delta_25 17128
delta_-26 17021
delta_-16 16019
delta_-6 15928
delta_8 15523
delta_-46 14287
delta_11 13513
delta_-13 13507
delta_32 12874
delta_-27 12155
delta_-18 9094
delta_-24 9064
delta_-25 7589
delta_-30 6578
delta_-23 3857
delta_-14 3637
delta_23 2684
delta_-28 2671
delta_21 2322
delta_39 1537
delta_-21 1421
delta_-20 1396
delta_-34 1344
delta_-41 1331
delta_34 1235
delta_22 1195
delta_24 836
delta_-39 495
delta_-12 482
delta_41 448
delta_-37 433
delta_-35 203
delta_-19 200
delta_-36 173
delta_42 103
delta_-43 101
delta_33 89
delta_16 87
delta_29 63
delta_14 63
delta_36 56
delta_38 53
delta_19 48
delta_-29 39
delta_18 38
delta_-62 32
delta_20 29
delta_28 13
delta_35 9
delta_13 8
delta_56 4
delta_17 1
delta_40 1
delta_-31 1
delta_37 1

depth_1_delta_1 7448458
depth_1_delta_2 318840
depth_1_delta_-1 314376
depth_1_delta_5 159030
depth_1_delta_3 110855
depth_1_delta_-3 73112
depth_1_delta_6 54860
depth_1_delta_-2 45757
depth_1_delta_4 43546
depth_1_delta_-4 41262
depth_1_delta_-7 41175
depth_1_delta_-5 39634
depth_1_delta_-17 39625
depth_1_delta_-11 39366
depth_1_delta_-8 36919
depth_1_delta_7 35949
depth_1_delta_9 35286
depth_1_delta_-9 33338
depth_1_delta_30 23650
depth_1_delta_-32 23517
depth_1_delta_-10 22618
depth_1_delta_12 22224
depth_1_delta_-33 22068
depth_1_delta_15 20850
depth_1_delta_-15 19872
depth_1_delta_10 17841
depth_1_delta_26 17686
depth_1_delta_-26 16386
depth_1_delta_-16 15320
depth_1_delta_31 15220
depth_1_delta_8 14570
depth_1_delta_-13 13499
depth_1_delta_-6 13344
depth_1_delta_32 12754
depth_1_delta_25 12028
depth_1_delta_11 11953
depth_1_delta_-27 11945
depth_1_delta_-46 11632
depth_1_delta_-18 9087
depth_1_delta_-24 9012
depth_1_delta_-25 7589
depth_1_delta_-30 6578
depth_1_delta_-23 3857
depth_1_delta_-14 3465
depth_1_delta_-28 2671
depth_1_delta_23 2600
depth_1_delta_21 2159
depth_1_delta_39 1533
depth_1_delta_-41 1330
depth_1_delta_-34 1306
depth_1_delta_-20 1277
depth_1_delta_-21 1273
depth_1_delta_34 1202
depth_1_delta_22 1195
depth_1_delta_24 794
depth_1_delta_-12 482
depth_1_delta_-39 469
depth_1_delta_41 447
depth_1_delta_-37 431
depth_1_delta_-35 203
depth_1_delta_-19 200
depth_1_delta_-36 173
depth_1_delta_42 103
depth_1_delta_-43 101
depth_1_delta_33 89
depth_1_delta_16 87
depth_1_delta_14 63
depth_1_delta_36 56
depth_1_delta_29 52
depth_1_delta_38 51
depth_1_delta_19 48
depth_1_delta_-29 39
depth_1_delta_18 38
depth_1_delta_-62 32
depth_1_delta_20 27
depth_1_delta_28 13
depth_1_delta_35 9
depth_1_delta_13 8
depth_1_delta_56 4
depth_1_delta_17 1
depth_1_delta_40 1
depth_1_delta_-31 1
depth_1_delta_37 1
depth_2_delta_1 1733069
depth_2_delta_-1 197729
depth_2_delta_2 39158
depth_2_delta_5 36764
depth_2_delta_15 17712
depth_2_delta_-15 16865
depth_2_delta_9 16218
depth_2_delta_-7 15905
depth_2_delta_-33 14224
depth_2_delta_31 12954
depth_2_delta_7 11323
depth_2_delta_-2 10644
depth_2_delta_-9 8977
depth_2_delta_6 7654
depth_2_delta_-17 7627
depth_2_delta_-3 6344
depth_2_delta_3 6240
depth_2_delta_-8 6128
depth_2_delta_12 4876
depth_2_delta_25 4423
depth_2_delta_-11 4165
depth_2_delta_-32 3207
depth_2_delta_-5 3137
depth_2_delta_-46 2518
depth_2_delta_10 2493
depth_2_delta_-6 2478
depth_2_delta_11 1555
depth_2_delta_8 952
depth_2_delta_30 730
depth_2_delta_-16 698
depth_2_delta_-26 635
depth_2_delta_-4 536
depth_2_delta_26 409
depth_2_delta_4 231
depth_2_delta_-10 220
depth_2_delta_-27 210
depth_2_delta_-14 172
depth_2_delta_21 144
depth_2_delta_-21 140
depth_2_delta_32 119
depth_2_delta_-20 119
depth_2_delta_23 84
depth_2_delta_-24 52
depth_2_delta_24 42
depth_2_delta_-34 38
depth_2_delta_34 33
depth_2_delta_-39 26
depth_2_delta_29 11
depth_2_delta_-13 8
depth_2_delta_-18 7
depth_2_delta_39 4
depth_2_delta_20 2
depth_2_delta_38 2
depth_2_delta_-37 2
depth_2_delta_-41 1
depth_2_delta_41 1
depth_3_delta_1 447402
depth_3_delta_-1 61724
depth_3_delta_-33 8161
depth_3_delta_15 7348
depth_3_delta_-15 6668
depth_3_delta_-17 1517
depth_3_delta_6 1256
depth_3_delta_-9 1009
depth_3_delta_2 756
depth_3_delta_31 729
depth_3_delta_25 677
depth_3_delta_3 573
depth_3_delta_-2 403
depth_3_delta_7 258
depth_3_delta_-8 238
depth_3_delta_-11 231
depth_3_delta_-46 137
depth_3_delta_5 136
depth_3_delta_-6 106
depth_3_delta_9 33
depth_3_delta_21 19
depth_3_delta_-21 8
depth_3_delta_-4 7
depth_3_delta_-7 6
depth_3_delta_11 5
depth_3_delta_12 5
depth_3_delta_-3 3
depth_3_delta_4 2
depth_3_delta_32 1
depth_3_delta_-5 1
depth_3_delta_8 1
depth_3_delta_-16 1
depth_4_delta_1 227889
depth_4_delta_-1 10807
depth_4_delta_-33 1584
depth_4_delta_-15 1451
depth_4_delta_15 1335
depth_4_delta_-11 51
depth_4_delta_2 13
depth_4_delta_31 8
depth_4_delta_7 4
depth_4_delta_-17 1
depth_4_delta_-9 1
depth_5_delta_1 146624
depth_5_delta_-1 1125
depth_5_delta_15 277
depth_5_delta_-15 217
depth_6_delta_1 100409
depth_6_delta_-1 116
depth_6_delta_-15 46
depth_6_delta_15 36
depth_7_delta_1 74389
depth_7_delta_15 18
depth_7_delta_-15 15
depth_7_delta_-1 12
depth_8_delta_1 53937
depth_8_delta_15 5
depth_8_delta_-15 1
depth_9_delta_1 30844
depth_9_delta_-15 2
depth_10_delta_1 8626
depth_11_delta_1 12

spp.pref.total 10837995
spp.pref.at_L2 776084
spp.pref.at_LLC 10061911

spp.depth.max 11
spp.depth.min 0
spp.depth.avg 1

spp.breadth.max 2
spp.breadth.min 0
spp.breadth.avg 0

delta_1 11433117
delta_2 79383
delta_3 27426
delta_-2 20744
delta_10 20642
delta_5 20531
delta_-1 19499
delta_7 14907
delta_-7 13745
delta_-11 11552
delta_-13 11213
delta_-14 10876
delta_-9 9297
delta_-5 9153
delta_4 9093
delta_-32 8906
delta_8 8285
delta_6 8091
delta_25 7438
delta_-3 7294
delta_14 5976
delta_-10 5490
delta_-16 5407
delta_28 4785
delta_-24 4316
delta_15 4240
delta_-21 4052
delta_31 3855
delta_-36 3648
delta_11 3543
delta_-6 3285
delta_30 3217
delta_-19 2421
delta_16 2404
delta_-17 2113
delta_-22 1979
delta_42 1885
delta_32 1463
delta_9 1366
delta_18 1341
delta_12 1292
delta_-4 1274
delta_-8 1259
delta_40 1242
delta_-43 928
delta_-33 849
delta_-27 801
delta_23 691
delta_-15 689
delta_13 685
delta_-12 543
delta_43 393
delta_-37 370
delta_17 335
delta_-40 293
delta_38 258
delta_-34 241
delta_19 192
delta_-25 175
delta_22 111
delta_-20 98
delta_39 91
delta_-55 54
delta_-62 51
delta_21 50
delta_-44 45
delta_-41 33
delta_-47 31
delta_-38 28
delta_29 21
delta_54 15
delta_49 11
delta_-52 10
delta_24 10
delta_-51 10
delta_-28 8
delta_-53 4
delta_-26 4
delta_-35 3
delta_20 3
delta_53 3
delta_36 3
delta_33 2
delta_37 2
delta_-54 2
delta_-23 1

depth_1_delta_1 4968398
depth_1_delta_2 76845
depth_1_delta_3 26526
depth_1_delta_10 20605
depth_1_delta_-2 20137
depth_1_delta_5 19921
depth_1_delta_-1 18692
depth_1_delta_7 14817
depth_1_delta_-11 11384
depth_1_delta_-13 11172
depth_1_delta_-7 11039
depth_1_delta_-9 9212
depth_1_delta_4 9007
depth_1_delta_-32 8721
depth_1_delta_-14 8445
depth_1_delta_8 8282
depth_1_delta_6 8033
depth_1_delta_-3 7272
depth_1_delta_25 7216
depth_1_delta_-5 6934
depth_1_delta_14 5588
depth_1_delta_-10 5416
depth_1_delta_-16 5323
depth_1_delta_28 4322
depth_1_delta_-24 4267
depth_1_delta_15 4237
depth_1_delta_-21 4045
depth_1_delta_31 3622
depth_1_delta_11 3433
depth_1_delta_-36 3347
depth_1_delta_-6 3198
depth_1_delta_30 3184
depth_1_delta_-19 2421
depth_1_delta_16 2364
depth_1_delta_-22 1979
depth_1_delta_-17 1959
depth_1_delta_42 1862
depth_1_delta_32 1463
depth_1_delta_9 1366
depth_1_delta_12 1291
depth_1_delta_-8 1254
depth_1_delta_-4 1250
depth_1_delta_40 1241
depth_1_delta_18 1221
depth_1_delta_-43 928
depth_1_delta_-27 761
depth_1_delta_23 691
depth_1_delta_-33 670
depth_1_delta_-12 541
depth_1_delta_-15 496
depth_1_delta_13 437
depth_1_delta_43 393
depth_1_delta_-37 370
depth_1_delta_17 335
depth_1_delta_-40 275
depth_1_delta_38 258
depth_1_delta_-34 241
depth_1_delta_19 170
depth_1_delta_-25 126
depth_1_delta_22 111
depth_1_delta_-20 98
depth_1_delta_39 91
depth_1_delta_-55 54
depth_1_delta_21 50
depth_1_delta_-44 45
depth_1_delta_-41 33
depth_1_delta_-47 31
depth_1_delta_-62 29
depth_1_delta_-38 28
depth_1_delta_29 21
depth_1_delta_54 15
depth_1_delta_49 11
depth_1_delta_24 10
depth_1_delta_-52 10
depth_1_delta_-51 10
depth_1_delta_-28 8
depth_1_delta_-53 4
depth_1_delta_-26 4
depth_1_delta_-35 3
depth_1_delta_36 3
depth_1_delta_20 3
depth_1_delta_53 3
depth_1_delta_37 2
depth_1_delta_-54 2
depth_1_delta_33 2
depth_1_delta_-23 1
depth_2_delta_1 1752419
depth_2_delta_-7 2627
depth_2_delta_-14 2430
depth_2_delta_2 2279
depth_2_delta_-5 2094
depth_2_delta_3 900
depth_2_delta_-1 786
depth_2_delta_5 609
depth_2_delta_-2 517
depth_2_delta_28 463
depth_2_delta_-36 301
depth_2_delta_14 284
depth_2_delta_31 233
depth_2_delta_25 222
depth_2_delta_-32 185
depth_2_delta_-33 179
depth_2_delta_-11 168
depth_2_delta_-17 154
depth_2_delta_13 142
depth_2_delta_-15 134
depth_2_delta_18 120
depth_2_delta_11 108
depth_2_delta_7 90
depth_2_delta_-6 87
depth_2_delta_-9 85
depth_2_delta_4 85
depth_2_delta_-16 84
depth_2_delta_-10 74
depth_2_delta_6 58
depth_2_delta_-24 45
depth_2_delta_-13 41
depth_2_delta_16 40
depth_2_delta_-27 40
depth_2_delta_-25 39
depth_2_delta_30 33
depth_2_delta_10 28
depth_2_delta_42 23
depth_2_delta_-3 22
depth_2_delta_-62 22
depth_2_delta_-4 21
depth_2_delta_-40 18
depth_2_delta_19 17
depth_2_delta_-21 7
depth_2_delta_-8 5
depth_2_delta_15 3
depth_2_delta_8 3
depth_2_delta_-12 2
depth_2_delta_40 1
depth_2_delta_12 1
depth_3_delta_1 1070869
depth_3_delta_2 191
depth_3_delta_-5 91
depth_3_delta_14 74
depth_3_delta_13 74
depth_3_delta_-2 69
depth_3_delta_-7 64
depth_3_delta_-15 37
depth_3_delta_-1 21
depth_3_delta_-25 10
depth_3_delta_10 9
depth_3_delta_19 5
depth_3_delta_-24 4
depth_3_delta_-4 3
depth_3_delta_11 2
depth_3_delta_5 1
depth_3_delta_-14 1
depth_3_delta_4 1
depth_4_delta_1 968246
depth_4_delta_2 65
depth_4_delta_-5 32
depth_4_delta_13 31
depth_4_delta_14 28
depth_4_delta_-15 19
depth_4_delta_-2 17
depth_4_delta_-7 14
depth_5_delta_1 900134
depth_5_delta_-2 4
depth_5_delta_2 3
depth_5_delta_-15 3
depth_5_delta_-5 2
depth_5_delta_14 2
depth_5_delta_-7 1
depth_5_delta_13 1
depth_6_delta_1 745765
depth_7_delta_1 522512
depth_8_delta_1 311163
depth_9_delta_1 176897
depth_10_delta_1 16713
depth_11_delta_1 1

spp.pref.total 10159553
spp.pref.at_L2 405931
spp.pref.at_LLC 9753622

spp.depth.max 11
spp.depth.min 0
spp.depth.avg 1

spp.breadth.max 2
spp.breadth.min 0
spp.breadth.avg 0

delta_1 11098126
delta_-1 579009
delta_2 344389
delta_5 189103
delta_3 113171
delta_-3 76315
delta_6 61180
delta_-2 54698
delta_-7 51763
delta_9 49547
delta_-33 45640
delta_4 43797
delta_-11 43209
delta_7 42435
delta_-8 42311
delta_-17 41469
delta_15 41340
delta_-5 40821
delta_-9 40650
delta_-15 39934
delta_-4 37604
delta_31 27694
delta_-32 25694
delta_12 25522
delta_-10 23930
delta_30 22103
delta_10 20739
delta_25 18281
delta_-6 17550
delta_26 17447
delta_-26 16310
delta_-16 15897
delta_11 15669
delta_8 15213
delta_-46 14215
delta_-13 13049
delta_32 12947
delta_-27 11096
delta_-24 9092
delta_-18 8458
delta_-25 8032
delta_-14 3894
delta_-23 3860
delta_-30 2982
delta_23 2799
delta_21 2779
delta_-28 2454
delta_-21 2170
delta_24 2083
delta_-41 1657
delta_-34 1420
delta_34 1407
delta_39 1311
delta_-12 814
delta_22 650
delta_-20 590
delta_-39 580
delta_14 515
delta_-37 470
delta_13 457
delta_19 327
delta_35 234
delta_42 148
delta_41 147
delta_33 146
delta_16 128
delta_-19 125
delta_-43 111
delta_-29 104
delta_-35 102
delta_-36 66
delta_-40 61
delta_36 52
delta_56 45
delta_29 38
delta_38 30
delta_-60 24
delta_18 20
delta_28 20
delta_17 16
delta_-22 15
delta_-62 9
delta_-31 1

depth_1_delta_1 7401399
depth_1_delta_2 304069
depth_1_delta_-1 302216
depth_1_delta_5 152945
depth_1_delta_3 104501
depth_1_delta_-3 69896
depth_1_delta_6 52034
depth_1_delta_4 43487
depth_1_delta_-2 43222
depth_1_delta_-11 38443
depth_1_delta_-5 37647
depth_1_delta_-4 36907
depth_1_delta_-8 36802
depth_1_delta_-7 36307
depth_1_delta_9 34046
depth_1_delta_-17 32128
depth_1_delta_7 31760
depth_1_delta_-9 31352
depth_1_delta_-32 23088
depth_1_delta_-10 23011
depth_1_delta_30 21418
depth_1_delta_-33 21237
depth_1_delta_12 21143
depth_1_delta_15 18819
depth_1_delta_-15 18175
depth_1_delta_10 17465
depth_1_delta_26 17031
depth_1_delta_-26 15673
depth_1_delta_-16 15013
depth_1_delta_31 14707
depth_1_delta_8 14372
depth_1_delta_-6 14175
depth_1_delta_11 13129
depth_1_delta_-13 13044
depth_1_delta_32 12792
depth_1_delta_25 12296
depth_1_delta_-46 11369
depth_1_delta_-27 10927
depth_1_delta_-24 8726
depth_1_delta_-18 8458
depth_1_delta_-25 7921
depth_1_delta_-23 3860
depth_1_delta_-14 3749
depth_1_delta_-30 2981
depth_1_delta_23 2611
depth_1_delta_-28 2454
depth_1_delta_21 2425
depth_1_delta_24 1918
depth_1_delta_-21 1833
depth_1_delta_-41 1655
depth_1_delta_39 1308
depth_1_delta_-34 1125
depth_1_delta_34 1095
depth_1_delta_-12 814
depth_1_delta_22 650
depth_1_delta_-20 577
depth_1_delta_-37 468
depth_1_delta_-39 464
depth_1_delta_14 168
depth_1_delta_19 147
depth_1_delta_33 145
depth_1_delta_42 145
depth_1_delta_41 145
depth_1_delta_16 128
depth_1_delta_-19 125
depth_1_delta_13 116
depth_1_delta_-43 111
depth_1_delta_35 104
depth_1_delta_-35 102
depth_1_delta_-29 100
depth_1_delta_-36 66
depth_1_delta_-40 61
depth_1_delta_36 52
depth_1_delta_56 45
depth_1_delta_29 34
depth_1_delta_38 30
depth_1_delta_-60 24
depth_1_delta_18 20
depth_1_delta_28 20
depth_1_delta_17 16
depth_1_delta_-22 15
depth_1_delta_-62 9
depth_1_delta_-31 1
depth_2_delta_1 1822528
depth_2_delta_-1 190785
depth_2_delta_2 39384
depth_2_delta_5 35739
depth_2_delta_9 15456
depth_2_delta_-7 15151
depth_2_delta_15 14884
depth_2_delta_-15 14482
depth_2_delta_-33 13953
depth_2_delta_31 12104
depth_2_delta_-2 10935
depth_2_delta_7 10324
depth_2_delta_-9 8253
depth_2_delta_6 7555
depth_2_delta_3 7412
depth_2_delta_-17 7186
depth_2_delta_-3 6417
depth_2_delta_-8 5214
depth_2_delta_25 4877
depth_2_delta_-11 4529
depth_2_delta_12 4379
depth_2_delta_10 3169
depth_2_delta_-6 3057
depth_2_delta_-5 2888
depth_2_delta_-46 2719
depth_2_delta_-32 2606
depth_2_delta_11 2536
depth_2_delta_-10 881
depth_2_delta_-16 880
depth_2_delta_8 832
depth_2_delta_30 685
depth_2_delta_-26 637
depth_2_delta_-4 629
depth_2_delta_26 416
depth_2_delta_21 321
depth_2_delta_-21 313
depth_2_delta_-24 313
depth_2_delta_34 312
depth_2_delta_-34 295
depth_2_delta_4 243
depth_2_delta_23 188
depth_2_delta_-27 169
depth_2_delta_24 163
depth_2_delta_32 154
depth_2_delta_-14 145
depth_2_delta_14 82
depth_2_delta_13 80
depth_2_delta_35 73
depth_2_delta_19 70
depth_2_delta_-39 68
depth_2_delta_-25 49
depth_2_delta_-20 13
depth_2_delta_-13 5
depth_2_delta_-29 4
depth_2_delta_29 4
depth_2_delta_42 3
depth_2_delta_39 3
depth_2_delta_41 2
depth_2_delta_-37 2
depth_2_delta_-41 1
depth_2_delta_33 1
depth_2_delta_-30 1
depth_3_delta_1 586814
depth_3_delta_-1 72549
depth_3_delta_-33 8297
depth_3_delta_15 6340
depth_3_delta_-15 5678
depth_3_delta_-17 2154
depth_3_delta_6 1571
depth_3_delta_3 1258
depth_3_delta_25 1108
depth_3_delta_-9 1044
depth_3_delta_2 925
depth_3_delta_31 877
depth_3_delta_-2 540
depth_3_delta_5 369
depth_3_delta_7 332
depth_3_delta_-6 315
depth_3_delta_-8 295
depth_3_delta_-11 179
depth_3_delta_-46 127
depth_3_delta_-7 95
depth_3_delta_-5 89
depth_3_delta_10 76
depth_3_delta_13 74
depth_3_delta_14 71
depth_3_delta_19 53
depth_3_delta_4 47
depth_3_delta_-4 46
depth_3_delta_9 45
depth_3_delta_35 42
depth_3_delta_-39 38
depth_3_delta_-10 38
depth_3_delta_-25 35
depth_3_delta_21 33
depth_3_delta_-24 27
depth_3_delta_-21 24
depth_3_delta_8 9
depth_3_delta_11 4
depth_3_delta_-16 4
depth_3_delta_-3 2
depth_3_delta_24 2
depth_3_delta_32 1
depth_3_delta_-41 1
depth_4_delta_1 360214
depth_4_delta_-1 12304
depth_4_delta_-33 2153
depth_4_delta_-15 1330
depth_4_delta_15 1107
depth_4_delta_-7 75
depth_4_delta_-5 65
depth_4_delta_14 63
depth_4_delta_13 63
depth_4_delta_-11 58
depth_4_delta_19 39
depth_4_delta_5 31
depth_4_delta_-25 23
depth_4_delta_7 19
depth_4_delta_4 19
depth_4_delta_10 18
depth_4_delta_-4 16
depth_4_delta_-24 15
depth_4_delta_35 15
depth_4_delta_6 14
depth_4_delta_2 11
depth_4_delta_-39 10
depth_4_delta_31 6
depth_4_delta_-6 3
depth_4_delta_-2 1
depth_4_delta_-9 1
depth_4_delta_-17 1
depth_5_delta_1 282781
depth_5_delta_-1 1065
depth_5_delta_-15 183
depth_5_delta_15 171
depth_5_delta_-7 60
depth_5_delta_14 56
depth_5_delta_-5 54
depth_5_delta_13 52
depth_5_delta_19 15
depth_5_delta_5 13
depth_5_delta_-24 8
depth_5_delta_10 8
depth_5_delta_6 6
depth_5_delta_-4 6
depth_5_delta_-25 3
depth_5_delta_4 1
depth_6_delta_1 218346
depth_6_delta_-1 85
depth_6_delta_-15 58
depth_6_delta_-7 47
depth_6_delta_-5 43
depth_6_delta_13 43
depth_6_delta_14 42
depth_6_delta_15 17
depth_6_delta_5 6
depth_6_delta_19 3
depth_6_delta_-24 3
depth_6_delta_10 3
depth_6_delta_-25 1
depth_7_delta_1 174954
depth_7_delta_14 28
depth_7_delta_-5 27
depth_7_delta_-15 22
depth_7_delta_-7 21
depth_7_delta_13 21
depth_7_delta_-1 5
depth_7_delta_15 2
depth_8_delta_1 143641
depth_8_delta_-7 7
depth_8_delta_13 7
depth_8_delta_-5 6
depth_8_delta_-15 5
depth_8_delta_14 4
depth_9_delta_1 81104
depth_9_delta_-5 2
depth_9_delta_13 1
depth_9_delta_-15 1
depth_9_delta_14 1
depth_10_delta_1 26110
depth_11_delta_1 235

Channel_0_RQ_row_buffer_hit 513439
Channel_0_RQ_row_buffer_miss 1206904
Channel_0_WQ_row_buffer_hit 65906
Channel_0_WQ_row_buffer_miss 316987
Channel_0_WQ_full 0
Channel_0_dbus_congested 490017

Channel_1_RQ_row_buffer_hit 512625
Channel_1_RQ_row_buffer_miss 1207260
Channel_1_WQ_row_buffer_hit 66165
Channel_1_WQ_row_buffer_miss 315931
Channel_1_WQ_full 0
Channel_1_dbus_congested 483894

avg_congested_cycle 9

DRAM_bw_pochs 2846673
DRAM_bw_level_0 2673228
DRAM_bw_level_1 123444
DRAM_bw_level_2 39391
DRAM_bw_level_3 10610
