*************************************************
   ChampSim Multicore Out-of-Order Simulator
   Last compiled: Mar 31 2025 20:14:32
*************************************************
parsing config file: /data3/config/mlop.ini

trace_0 /data3/STREAMING/traces/streaming_phase2_core0.trace.xz
trace_1 /data3/STREAMING/traces/streaming_phase2_core1.trace.xz
trace_2 /data3/STREAMING/traces/streaming_phase2_core2.trace.xz
trace_3 /data3/STREAMING/traces/streaming_phase2_core3.trace.xz
adding L2C_PREFETCHER: MLOP
adding L2C_PREFETCHER: MLOP
adding L2C_PREFETCHER: MLOP
adding L2C_PREFETCHER: MLOP
Initialize SHIP state
warmup_instructions 50000000
simulation_instructions 150000000
champsim_seed 8854
measure_ipc 0
measure_ipc_epoch 1000
measure_dram_bw 1
measure_dram_bw_epoch 256
measure_cache_acc 1
measure_cache_acc_epoch 1024
l1d_perfect 0
l2c_perfect 0
llc_perfect 0
l1d_semi_perfect 0
l2c_semi_perfect 0
llc_semi_perfect 0
semi_perfect_cache_page_buffer_size 64

num_cpus 4
cpu_freq 4000
dram_io_freq 2400
page_size 4096
block_size 64
max_read_per_cycle 8
max_fill_per_cycle 1
dram_channels 2
log2_dram_channels 1
dram_ranks 1
dram_banks 8
dram_rows 65536
dram_columns 128
dram_row_size 8
dram_size 8192
dram_pages 2097152

fetch_width 6
decode_width 6
exec_width 4
lq_width 2
sq_width 2
retire_width 4
scheduler_size 128
branch_mispredict_penalty 20
rob_size 256
lq_size 72
sq_size 56
num_instr_destinations_sparc 4
num_instr_destinations 2
num_instr_sources 4

itlb_set 16
itlb_way 8
itlb_rq_size 16
itlb_wq_size 16
itlb_pq_size 0
itlb_mshr_size 8
itlb_latency 1

dtlb_set 16
dtlb_way 4
dtlb_rq_size 16
dtlb_wq_size 16
dtlb_pq_size 0
dtlb_mshr_size 8
dtlb_latency 1

stlb_set 128
stlb_way 12
stlb_rq_size 32
stlb_wq_size 32
stlb_pq_size 0
stlb_mshr_size 16
stlb_latency 8

l1i_size 32
l1i_set 64
l1i_way 8
l1i_rq_size 64
l1i_wq_size 64
l1i_pq_size 8
l1i_mshr_size 8
l1i_latency 1

l1d_size 32
l1d_set 64
l1d_way 8
l1d_rq_size 64
l1d_wq_size 64
l1d_pq_size 8
l1d_mshr_size 16
l1d_latency 4

l2c_size 256
l2c_set 512
l2c_way 8
l2c_rq_size 32
l2c_wq_size 32
l2c_pq_size 32
l2c_mshr_size 32
l2c_latency 10

llc_size 8192
llc_set 8192
llc_way 16
llc_rq_size 128
llc_wq_size 128
llc_pq_size 128
llc_mshr_size 256
llc_latency 20

dram_channel_width 8
dram_wq_size 64
dram_rq_size 64
tRP 15
tRCD 15
tCAS 12.5
dram_dbus_turn_around_time 30
dram_write_high_wm 56
dram_write_low_wm 48
min_dram_writes_per_switch 16
dram_mtps 2400
dram_dbus_return_time 13

mlop_pref_degree 16
mlop_num_updates 500
mlop_l1d_thresh 2
mlop_l2c_thresh 0.75
mlop_llc_thresh 0.3
mlop_debug_level 0
mlop_blocks_in_cache 4096
mlop_blocks_in_zone 64
mlop_amt_size 2048
mlop_PF_DEGREE 16
mlop_NUM_UPDATES 500
mlop_L1D_THRESH 1000
mlop_L2C_THRESH 375
mlop_LLC_THRESH 150
mlop_ORIGIN 63
mlop_MAX_OFFSET 63
mlop_MIN_OFFSET -63
mlop_ORIGIN 63
mlop_NUM_OFFSETS 127


Heartbeat CPU  3 instructions:    1000003 cycles:     276395 heartbeat IPC: 3.61802 cumulative IPC: 3.61802 (Simulation time: 0 hr 0 min 5 sec) 
Heartbeat CPU  2 instructions:    1000002 cycles:     306182 heartbeat IPC: 3.26604 cumulative IPC: 3.26604 (Simulation time: 0 hr 0 min 5 sec) 
Heartbeat CPU  3 instructions:    2000001 cycles:     543688 heartbeat IPC: 3.74121 cumulative IPC: 3.67858 (Simulation time: 0 hr 0 min 9 sec) 
Heartbeat CPU  0 instructions:    1000002 cycles:     556172 heartbeat IPC: 1.79801 cumulative IPC: 1.79801 (Simulation time: 0 hr 0 min 9 sec) 
Heartbeat CPU  1 instructions:    1000001 cycles:     585149 heartbeat IPC: 1.70897 cumulative IPC: 1.70897 (Simulation time: 0 hr 0 min 10 sec) 
Heartbeat CPU  2 instructions:    2000002 cycles:     602518 heartbeat IPC: 3.37455 cumulative IPC: 3.31941 (Simulation time: 0 hr 0 min 10 sec) 
Heartbeat CPU  3 instructions:    3000002 cycles:     813528 heartbeat IPC: 3.70590 cumulative IPC: 3.68764 (Simulation time: 0 hr 0 min 14 sec) 
Heartbeat CPU  2 instructions:    3000003 cycles:     890143 heartbeat IPC: 3.47675 cumulative IPC: 3.37025 (Simulation time: 0 hr 0 min 15 sec) 
Heartbeat CPU  0 instructions:    2000002 cycles:    1070553 heartbeat IPC: 1.94408 cumulative IPC: 1.86820 (Simulation time: 0 hr 0 min 18 sec) 
Heartbeat CPU  1 instructions:    2000003 cycles:    1074797 heartbeat IPC: 2.04229 cumulative IPC: 1.86082 (Simulation time: 0 hr 0 min 18 sec) 
Heartbeat CPU  3 instructions:    4000000 cycles:    1079599 heartbeat IPC: 3.75839 cumulative IPC: 3.70508 (Simulation time: 0 hr 0 min 18 sec) 
Heartbeat CPU  2 instructions:    4000000 cycles:    1181085 heartbeat IPC: 3.43710 cumulative IPC: 3.38672 (Simulation time: 0 hr 0 min 20 sec) 
Heartbeat CPU  3 instructions:    5000003 cycles:    1349300 heartbeat IPC: 3.70782 cumulative IPC: 3.70563 (Simulation time: 0 hr 0 min 23 sec) 
Heartbeat CPU  2 instructions:    5000000 cycles:    1477992 heartbeat IPC: 3.36806 cumulative IPC: 3.38297 (Simulation time: 0 hr 0 min 25 sec) 
Heartbeat CPU  0 instructions:    3000001 cycles:    1579691 heartbeat IPC: 1.96410 cumulative IPC: 1.89911 (Simulation time: 0 hr 0 min 27 sec) 
Heartbeat CPU  1 instructions:    3000001 cycles:    1582779 heartbeat IPC: 1.96857 cumulative IPC: 1.89540 (Simulation time: 0 hr 0 min 27 sec) 
Heartbeat CPU  3 instructions:    6000001 cycles:    1614065 heartbeat IPC: 3.77693 cumulative IPC: 3.71732 (Simulation time: 0 hr 0 min 28 sec) 
Heartbeat CPU  2 instructions:    6000002 cycles:    1767221 heartbeat IPC: 3.45747 cumulative IPC: 3.39516 (Simulation time: 0 hr 0 min 30 sec) 
Heartbeat CPU  3 instructions:    7000000 cycles:    1878351 heartbeat IPC: 3.78378 cumulative IPC: 3.72667 (Simulation time: 0 hr 0 min 32 sec) 
Heartbeat CPU  2 instructions:    7000003 cycles:    2056370 heartbeat IPC: 3.45843 cumulative IPC: 3.40406 (Simulation time: 0 hr 0 min 36 sec) 
Heartbeat CPU  0 instructions:    4000000 cycles:    2057163 heartbeat IPC: 2.09436 cumulative IPC: 1.94443 (Simulation time: 0 hr 0 min 36 sec) 
Heartbeat CPU  1 instructions:    4000000 cycles:    2068793 heartbeat IPC: 2.05755 cumulative IPC: 1.93349 (Simulation time: 0 hr 0 min 36 sec) 
Heartbeat CPU  3 instructions:    8000000 cycles:    2144478 heartbeat IPC: 3.75760 cumulative IPC: 3.73051 (Simulation time: 0 hr 0 min 37 sec) 
Heartbeat CPU  2 instructions:    8000000 cycles:    2349192 heartbeat IPC: 3.41503 cumulative IPC: 3.40543 (Simulation time: 0 hr 0 min 41 sec) 
Heartbeat CPU  3 instructions:    9000002 cycles:    2409603 heartbeat IPC: 3.77181 cumulative IPC: 3.73506 (Simulation time: 0 hr 0 min 42 sec) 
Heartbeat CPU  0 instructions:    5000001 cycles:    2550285 heartbeat IPC: 2.02790 cumulative IPC: 1.96057 (Simulation time: 0 hr 0 min 44 sec) 
Heartbeat CPU  1 instructions:    5000001 cycles:    2558671 heartbeat IPC: 2.04133 cumulative IPC: 1.95414 (Simulation time: 0 hr 0 min 45 sec) 
Heartbeat CPU  2 instructions:    9000002 cycles:    2640289 heartbeat IPC: 3.43529 cumulative IPC: 3.40872 (Simulation time: 0 hr 0 min 46 sec) 
Heartbeat CPU  3 instructions:   10000003 cycles:    2913135 heartbeat IPC: 1.98597 cumulative IPC: 3.43273 (Simulation time: 0 hr 0 min 49 sec) 
Heartbeat CPU  0 instructions:    6000000 cycles:    3019302 heartbeat IPC: 2.13212 cumulative IPC: 1.98721 (Simulation time: 0 hr 0 min 51 sec) 
Heartbeat CPU  1 instructions:    6000003 cycles:    3051911 heartbeat IPC: 2.02741 cumulative IPC: 1.96598 (Simulation time: 0 hr 0 min 51 sec) 
Heartbeat CPU  2 instructions:   10000000 cycles:    3226766 heartbeat IPC: 1.70509 cumulative IPC: 3.09908 (Simulation time: 0 hr 0 min 53 sec) 
Heartbeat CPU  3 instructions:   11000002 cycles:    3490996 heartbeat IPC: 1.73052 cumulative IPC: 3.15096 (Simulation time: 0 hr 0 min 57 sec) 
Heartbeat CPU  0 instructions:    7000003 cycles:    3497604 heartbeat IPC: 2.09074 cumulative IPC: 2.00137 (Simulation time: 0 hr 0 min 57 sec) 
Heartbeat CPU  1 instructions:    7000000 cycles:    3500011 heartbeat IPC: 2.23164 cumulative IPC: 1.99999 (Simulation time: 0 hr 0 min 57 sec) 
Heartbeat CPU  2 instructions:   11000001 cycles:    3907031 heartbeat IPC: 1.47002 cumulative IPC: 2.81544 (Simulation time: 0 hr 1 min 2 sec) 
Heartbeat CPU  0 instructions:    8000000 cycles:    3961745 heartbeat IPC: 2.15451 cumulative IPC: 2.01931 (Simulation time: 0 hr 1 min 3 sec) 
Heartbeat CPU  1 instructions:    8000000 cycles:    3984350 heartbeat IPC: 2.06467 cumulative IPC: 2.00786 (Simulation time: 0 hr 1 min 3 sec) 
Heartbeat CPU  3 instructions:   12000000 cycles:    4052703 heartbeat IPC: 1.78028 cumulative IPC: 2.96099 (Simulation time: 0 hr 1 min 4 sec) 
Heartbeat CPU  0 instructions:    9000001 cycles:    4433329 heartbeat IPC: 2.12052 cumulative IPC: 2.03008 (Simulation time: 0 hr 1 min 9 sec) 
Heartbeat CPU  1 instructions:    9000000 cycles:    4451114 heartbeat IPC: 2.14241 cumulative IPC: 2.02197 (Simulation time: 0 hr 1 min 10 sec) 
Heartbeat CPU  2 instructions:   12000000 cycles:    4514657 heartbeat IPC: 1.64575 cumulative IPC: 2.65801 (Simulation time: 0 hr 1 min 10 sec) 
Heartbeat CPU  3 instructions:   13000003 cycles:    4594941 heartbeat IPC: 1.84421 cumulative IPC: 2.82920 (Simulation time: 0 hr 1 min 12 sec) 
Heartbeat CPU  0 instructions:   10000001 cycles:    4948247 heartbeat IPC: 1.94206 cumulative IPC: 2.02092 (Simulation time: 0 hr 1 min 16 sec) 
Heartbeat CPU  1 instructions:   10000000 cycles:    4951634 heartbeat IPC: 1.99792 cumulative IPC: 2.01954 (Simulation time: 0 hr 1 min 16 sec) 
Heartbeat CPU  3 instructions:   14000002 cycles:    5083983 heartbeat IPC: 2.04481 cumulative IPC: 2.75375 (Simulation time: 0 hr 1 min 18 sec) 
Heartbeat CPU  2 instructions:   13000000 cycles:    5088598 heartbeat IPC: 1.74234 cumulative IPC: 2.55473 (Simulation time: 0 hr 1 min 18 sec) 
Heartbeat CPU  0 instructions:   11000002 cycles:    5471483 heartbeat IPC: 1.91119 cumulative IPC: 2.01042 (Simulation time: 0 hr 1 min 23 sec) 
Heartbeat CPU  1 instructions:   11000000 cycles:    5497885 heartbeat IPC: 1.83066 cumulative IPC: 2.00077 (Simulation time: 0 hr 1 min 23 sec) 
Heartbeat CPU  3 instructions:   15000000 cycles:    5609301 heartbeat IPC: 1.90361 cumulative IPC: 2.67413 (Simulation time: 0 hr 1 min 25 sec) 
Heartbeat CPU  2 instructions:   14000003 cycles:    5640122 heartbeat IPC: 1.81316 cumulative IPC: 2.48222 (Simulation time: 0 hr 1 min 25 sec) 
Heartbeat CPU  0 instructions:   12000000 cycles:    5953801 heartbeat IPC: 2.07332 cumulative IPC: 2.01552 (Simulation time: 0 hr 1 min 29 sec) 
Heartbeat CPU  1 instructions:   12000000 cycles:    6020825 heartbeat IPC: 1.91227 cumulative IPC: 1.99308 (Simulation time: 0 hr 1 min 30 sec) 
Heartbeat CPU  2 instructions:   15000000 cycles:    6215776 heartbeat IPC: 1.73715 cumulative IPC: 2.41321 (Simulation time: 0 hr 1 min 32 sec) 
Heartbeat CPU  3 instructions:   16000000 cycles:    6230923 heartbeat IPC: 1.60869 cumulative IPC: 2.56784 (Simulation time: 0 hr 1 min 33 sec) 
Heartbeat CPU  0 instructions:   13000000 cycles:    6491506 heartbeat IPC: 1.85976 cumulative IPC: 2.00262 (Simulation time: 0 hr 1 min 36 sec) 
Heartbeat CPU  1 instructions:   13000002 cycles:    6556622 heartbeat IPC: 1.86638 cumulative IPC: 1.98273 (Simulation time: 0 hr 1 min 36 sec) 
Heartbeat CPU  2 instructions:   16000000 cycles:    6823239 heartbeat IPC: 1.64619 cumulative IPC: 2.34493 (Simulation time: 0 hr 1 min 39 sec) 
Heartbeat CPU  3 instructions:   17000000 cycles:    6904389 heartbeat IPC: 1.48486 cumulative IPC: 2.46220 (Simulation time: 0 hr 1 min 40 sec) 
Heartbeat CPU  0 instructions:   14000001 cycles:    7017776 heartbeat IPC: 1.90017 cumulative IPC: 1.99493 (Simulation time: 0 hr 1 min 42 sec) 
Heartbeat CPU  1 instructions:   14000000 cycles:    7081300 heartbeat IPC: 1.90593 cumulative IPC: 1.97704 (Simulation time: 0 hr 1 min 43 sec) 
Heartbeat CPU  2 instructions:   17000000 cycles:    7423661 heartbeat IPC: 1.66550 cumulative IPC: 2.28998 (Simulation time: 0 hr 1 min 47 sec) 
Heartbeat CPU  3 instructions:   18000002 cycles:    7477172 heartbeat IPC: 1.74587 cumulative IPC: 2.40733 (Simulation time: 0 hr 1 min 48 sec) 
Heartbeat CPU  0 instructions:   15000000 cycles:    7490258 heartbeat IPC: 2.11648 cumulative IPC: 2.00260 (Simulation time: 0 hr 1 min 48 sec) 
Heartbeat CPU  1 instructions:   15000002 cycles:    7601811 heartbeat IPC: 1.92119 cumulative IPC: 1.97321 (Simulation time: 0 hr 1 min 49 sec) 
Heartbeat CPU  3 instructions:   19000000 cycles:    8014859 heartbeat IPC: 1.85981 cumulative IPC: 2.37060 (Simulation time: 0 hr 1 min 54 sec) 
Heartbeat CPU  0 instructions:   16000000 cycles:    8021667 heartbeat IPC: 1.88179 cumulative IPC: 1.99460 (Simulation time: 0 hr 1 min 54 sec) 
Heartbeat CPU  2 instructions:   18000000 cycles:    8031667 heartbeat IPC: 1.64472 cumulative IPC: 2.24113 (Simulation time: 0 hr 1 min 54 sec) 
Heartbeat CPU  1 instructions:   16000000 cycles:    8137285 heartbeat IPC: 1.86750 cumulative IPC: 1.96626 (Simulation time: 0 hr 1 min 56 sec) 
Heartbeat CPU  0 instructions:   17000001 cycles:    8556377 heartbeat IPC: 1.87017 cumulative IPC: 1.98682 (Simulation time: 0 hr 2 min 1 sec) 
Heartbeat CPU  3 instructions:   20000000 cycles:    8567384 heartbeat IPC: 1.80987 cumulative IPC: 2.33443 (Simulation time: 0 hr 2 min 1 sec) 
Heartbeat CPU  2 instructions:   19000003 cycles:    8635209 heartbeat IPC: 1.65689 cumulative IPC: 2.20029 (Simulation time: 0 hr 2 min 2 sec) 
Heartbeat CPU  1 instructions:   17000002 cycles:    8742108 heartbeat IPC: 1.65338 cumulative IPC: 1.94461 (Simulation time: 0 hr 2 min 3 sec) 
Heartbeat CPU  0 instructions:   18000000 cycles:    9094980 heartbeat IPC: 1.85665 cumulative IPC: 1.97911 (Simulation time: 0 hr 2 min 7 sec) 
Heartbeat CPU  3 instructions:   21000003 cycles:    9098956 heartbeat IPC: 1.88122 cumulative IPC: 2.30796 (Simulation time: 0 hr 2 min 7 sec) 
Heartbeat CPU  2 instructions:   20000000 cycles:    9239073 heartbeat IPC: 1.65600 cumulative IPC: 2.16472 (Simulation time: 0 hr 2 min 9 sec) 
Heartbeat CPU  1 instructions:   18000001 cycles:    9292237 heartbeat IPC: 1.81775 cumulative IPC: 1.93710 (Simulation time: 0 hr 2 min 10 sec) 
Heartbeat CPU  0 instructions:   19000001 cycles:    9632472 heartbeat IPC: 1.86049 cumulative IPC: 1.97249 (Simulation time: 0 hr 2 min 14 sec) 
Heartbeat CPU  3 instructions:   22000001 cycles:    9655962 heartbeat IPC: 1.79531 cumulative IPC: 2.27839 (Simulation time: 0 hr 2 min 14 sec) 
Heartbeat CPU  1 instructions:   19000001 cycles:    9837167 heartbeat IPC: 1.83510 cumulative IPC: 1.93145 (Simulation time: 0 hr 2 min 16 sec) 
Heartbeat CPU  2 instructions:   21000000 cycles:    9848186 heartbeat IPC: 1.64173 cumulative IPC: 2.13237 (Simulation time: 0 hr 2 min 16 sec) 
Heartbeat CPU  0 instructions:   20000000 cycles:   10198942 heartbeat IPC: 1.76532 cumulative IPC: 1.96099 (Simulation time: 0 hr 2 min 21 sec) 
Heartbeat CPU  3 instructions:   23000000 cycles:   10201355 heartbeat IPC: 1.83354 cumulative IPC: 2.25460 (Simulation time: 0 hr 2 min 21 sec) 
Heartbeat CPU  1 instructions:   20000000 cycles:   10355932 heartbeat IPC: 1.92765 cumulative IPC: 1.93126 (Simulation time: 0 hr 2 min 22 sec) 
Heartbeat CPU  2 instructions:   22000002 cycles:   10458224 heartbeat IPC: 1.63925 cumulative IPC: 2.10361 (Simulation time: 0 hr 2 min 24 sec) 
Heartbeat CPU  0 instructions:   21000002 cycles:   10739501 heartbeat IPC: 1.84994 cumulative IPC: 1.95540 (Simulation time: 0 hr 2 min 27 sec) 
Heartbeat CPU  3 instructions:   24000000 cycles:   10758916 heartbeat IPC: 1.79353 cumulative IPC: 2.23071 (Simulation time: 0 hr 2 min 27 sec) 
Heartbeat CPU  1 instructions:   21000001 cycles:   10896702 heartbeat IPC: 1.84922 cumulative IPC: 1.92719 (Simulation time: 0 hr 2 min 29 sec) 
Heartbeat CPU  2 instructions:   23000000 cycles:   11054900 heartbeat IPC: 1.67595 cumulative IPC: 2.08053 (Simulation time: 0 hr 2 min 31 sec) 
Heartbeat CPU  0 instructions:   22000001 cycles:   11240152 heartbeat IPC: 1.99740 cumulative IPC: 1.95727 (Simulation time: 0 hr 2 min 33 sec) 
Heartbeat CPU  3 instructions:   25000001 cycles:   11315130 heartbeat IPC: 1.79787 cumulative IPC: 2.20943 (Simulation time: 0 hr 2 min 34 sec) 
Heartbeat CPU  1 instructions:   22000000 cycles:   11422361 heartbeat IPC: 1.90237 cumulative IPC: 1.92605 (Simulation time: 0 hr 2 min 36 sec) 
Heartbeat CPU  2 instructions:   24000000 cycles:   11642641 heartbeat IPC: 1.70143 cumulative IPC: 2.06139 (Simulation time: 0 hr 2 min 38 sec) 
Heartbeat CPU  0 instructions:   23000003 cycles:   11794495 heartbeat IPC: 1.80394 cumulative IPC: 1.95006 (Simulation time: 0 hr 2 min 40 sec) 
Heartbeat CPU  3 instructions:   26000000 cycles:   11873817 heartbeat IPC: 1.78991 cumulative IPC: 2.18969 (Simulation time: 0 hr 2 min 41 sec) 
Heartbeat CPU  1 instructions:   23000001 cycles:   11943155 heartbeat IPC: 1.92015 cumulative IPC: 1.92579 (Simulation time: 0 hr 2 min 42 sec) 
Heartbeat CPU  2 instructions:   25000002 cycles:   12247328 heartbeat IPC: 1.65375 cumulative IPC: 2.04126 (Simulation time: 0 hr 2 min 46 sec) 
Heartbeat CPU  0 instructions:   24000000 cycles:   12320631 heartbeat IPC: 1.90064 cumulative IPC: 1.94795 (Simulation time: 0 hr 2 min 47 sec) 
Heartbeat CPU  3 instructions:   27000003 cycles:   12395399 heartbeat IPC: 1.91725 cumulative IPC: 2.17823 (Simulation time: 0 hr 2 min 48 sec) 
Heartbeat CPU  1 instructions:   24000000 cycles:   12489993 heartbeat IPC: 1.82869 cumulative IPC: 1.92154 (Simulation time: 0 hr 2 min 49 sec) 
Heartbeat CPU  2 instructions:   26000002 cycles:   12828706 heartbeat IPC: 1.72005 cumulative IPC: 2.02671 (Simulation time: 0 hr 2 min 53 sec) 
Heartbeat CPU  0 instructions:   25000003 cycles:   12852553 heartbeat IPC: 1.87998 cumulative IPC: 1.94514 (Simulation time: 0 hr 2 min 54 sec) 
Heartbeat CPU  3 instructions:   28000000 cycles:   12916055 heartbeat IPC: 1.92065 cumulative IPC: 2.16784 (Simulation time: 0 hr 2 min 54 sec) 
Heartbeat CPU  1 instructions:   25000001 cycles:   13052515 heartbeat IPC: 1.77771 cumulative IPC: 1.91534 (Simulation time: 0 hr 2 min 56 sec) 
Heartbeat CPU  0 instructions:   26000002 cycles:   13375084 heartbeat IPC: 1.91376 cumulative IPC: 1.94391 (Simulation time: 0 hr 3 min 0 sec) 
Heartbeat CPU  2 instructions:   27000000 cycles:   13393747 heartbeat IPC: 1.76978 cumulative IPC: 2.01587 (Simulation time: 0 hr 3 min 1 sec) 
Heartbeat CPU  3 instructions:   29000000 cycles:   13421451 heartbeat IPC: 1.97865 cumulative IPC: 2.16072 (Simulation time: 0 hr 3 min 1 sec) 
Heartbeat CPU  1 instructions:   26000000 cycles:   13566945 heartbeat IPC: 1.94390 cumulative IPC: 1.91642 (Simulation time: 0 hr 3 min 3 sec) 
Heartbeat CPU  0 instructions:   27000001 cycles:   13929090 heartbeat IPC: 1.80503 cumulative IPC: 1.93839 (Simulation time: 0 hr 3 min 7 sec) 
Heartbeat CPU  3 instructions:   30000003 cycles:   13952876 heartbeat IPC: 1.88174 cumulative IPC: 2.15009 (Simulation time: 0 hr 3 min 8 sec) 
Heartbeat CPU  2 instructions:   28000000 cycles:   13972912 heartbeat IPC: 1.72662 cumulative IPC: 2.00388 (Simulation time: 0 hr 3 min 8 sec) 
Heartbeat CPU  1 instructions:   27000000 cycles:   14113955 heartbeat IPC: 1.82812 cumulative IPC: 1.91300 (Simulation time: 0 hr 3 min 10 sec) 
Heartbeat CPU  0 instructions:   28000000 cycles:   14432038 heartbeat IPC: 1.98828 cumulative IPC: 1.94013 (Simulation time: 0 hr 3 min 14 sec) 
Heartbeat CPU  3 instructions:   31000002 cycles:   14483074 heartbeat IPC: 1.88609 cumulative IPC: 2.14043 (Simulation time: 0 hr 3 min 15 sec) 
Heartbeat CPU  2 instructions:   29000001 cycles:   14572427 heartbeat IPC: 1.66802 cumulative IPC: 1.99006 (Simulation time: 0 hr 3 min 16 sec) 
Heartbeat CPU  1 instructions:   28000000 cycles:   14637890 heartbeat IPC: 1.90863 cumulative IPC: 1.91284 (Simulation time: 0 hr 3 min 17 sec) 
Heartbeat CPU  0 instructions:   29000003 cycles:   14955458 heartbeat IPC: 1.91052 cumulative IPC: 1.93909 (Simulation time: 0 hr 3 min 21 sec) 
Heartbeat CPU  3 instructions:   32000000 cycles:   14999825 heartbeat IPC: 1.93516 cumulative IPC: 2.13336 (Simulation time: 0 hr 3 min 21 sec) 
Heartbeat CPU  2 instructions:   30000003 cycles:   15152433 heartbeat IPC: 1.72412 cumulative IPC: 1.97988 (Simulation time: 0 hr 3 min 23 sec) 
Heartbeat CPU  1 instructions:   29000000 cycles:   15156041 heartbeat IPC: 1.92994 cumulative IPC: 1.91343 (Simulation time: 0 hr 3 min 23 sec) 
Heartbeat CPU  0 instructions:   30000002 cycles:   15504046 heartbeat IPC: 1.82286 cumulative IPC: 1.93498 (Simulation time: 0 hr 3 min 27 sec) 
Heartbeat CPU  3 instructions:   33000003 cycles:   15528410 heartbeat IPC: 1.89185 cumulative IPC: 2.12514 (Simulation time: 0 hr 3 min 28 sec) 
Heartbeat CPU  1 instructions:   30000002 cycles:   15701470 heartbeat IPC: 1.83342 cumulative IPC: 1.91065 (Simulation time: 0 hr 3 min 30 sec) 
Heartbeat CPU  2 instructions:   31000003 cycles:   15736043 heartbeat IPC: 1.71347 cumulative IPC: 1.97000 (Simulation time: 0 hr 3 min 31 sec) 
Heartbeat CPU  0 instructions:   31000000 cycles:   16007926 heartbeat IPC: 1.98460 cumulative IPC: 1.93654 (Simulation time: 0 hr 3 min 34 sec) 
Heartbeat CPU  3 instructions:   34000003 cycles:   16076843 heartbeat IPC: 1.82338 cumulative IPC: 2.11484 (Simulation time: 0 hr 3 min 35 sec) 
Heartbeat CPU  1 instructions:   31000001 cycles:   16219138 heartbeat IPC: 1.93174 cumulative IPC: 1.91132 (Simulation time: 0 hr 3 min 37 sec) 
Heartbeat CPU  2 instructions:   32000000 cycles:   16294582 heartbeat IPC: 1.79038 cumulative IPC: 1.96384 (Simulation time: 0 hr 3 min 38 sec) 
Heartbeat CPU  0 instructions:   32000000 cycles:   16530262 heartbeat IPC: 1.91448 cumulative IPC: 1.93584 (Simulation time: 0 hr 3 min 41 sec) 
Heartbeat CPU  3 instructions:   35000000 cycles:   16602035 heartbeat IPC: 1.90406 cumulative IPC: 2.10818 (Simulation time: 0 hr 3 min 42 sec) 
Heartbeat CPU  1 instructions:   32000000 cycles:   16744314 heartbeat IPC: 1.90412 cumulative IPC: 1.91110 (Simulation time: 0 hr 3 min 44 sec) 
Heartbeat CPU  2 instructions:   33000000 cycles:   16873926 heartbeat IPC: 1.72609 cumulative IPC: 1.95568 (Simulation time: 0 hr 3 min 45 sec) 
Heartbeat CPU  0 instructions:   33000003 cycles:   17068992 heartbeat IPC: 1.85622 cumulative IPC: 1.93333 (Simulation time: 0 hr 3 min 48 sec) 
Heartbeat CPU  3 instructions:   36000000 cycles:   17169311 heartbeat IPC: 1.76281 cumulative IPC: 2.09676 (Simulation time: 0 hr 3 min 49 sec) 
Heartbeat CPU  1 instructions:   33000001 cycles:   17264501 heartbeat IPC: 1.92239 cumulative IPC: 1.91144 (Simulation time: 0 hr 3 min 50 sec) 
Heartbeat CPU  2 instructions:   34000001 cycles:   17439867 heartbeat IPC: 1.76697 cumulative IPC: 1.94956 (Simulation time: 0 hr 3 min 52 sec) 
Heartbeat CPU  0 instructions:   34000002 cycles:   17600854 heartbeat IPC: 1.88019 cumulative IPC: 1.93172 (Simulation time: 0 hr 3 min 54 sec) 
Heartbeat CPU  1 instructions:   34000002 cycles:   17790461 heartbeat IPC: 1.90129 cumulative IPC: 1.91114 (Simulation time: 0 hr 3 min 56 sec) 
Heartbeat CPU  3 instructions:   37000001 cycles:   17816557 heartbeat IPC: 1.54501 cumulative IPC: 2.07672 (Simulation time: 0 hr 3 min 57 sec) 
Heartbeat CPU  2 instructions:   35000003 cycles:   17992211 heartbeat IPC: 1.81047 cumulative IPC: 1.94529 (Simulation time: 0 hr 3 min 59 sec) 
Heartbeat CPU  0 instructions:   35000001 cycles:   18159875 heartbeat IPC: 1.78884 cumulative IPC: 1.92733 (Simulation time: 0 hr 4 min 1 sec) 
Heartbeat CPU  3 instructions:   38000001 cycles:   18382618 heartbeat IPC: 1.76659 cumulative IPC: 2.06717 (Simulation time: 0 hr 4 min 3 sec) 
Heartbeat CPU  1 instructions:   35000000 cycles:   18383204 heartbeat IPC: 1.68707 cumulative IPC: 1.90391 (Simulation time: 0 hr 4 min 3 sec) 
Heartbeat CPU  2 instructions:   36000000 cycles:   18556570 heartbeat IPC: 1.77192 cumulative IPC: 1.94001 (Simulation time: 0 hr 4 min 5 sec) 
Heartbeat CPU  0 instructions:   36000000 cycles:   18856261 heartbeat IPC: 1.43598 cumulative IPC: 1.90918 (Simulation time: 0 hr 4 min 8 sec) 
Heartbeat CPU  1 instructions:   36000000 cycles:   18935399 heartbeat IPC: 1.81095 cumulative IPC: 1.90120 (Simulation time: 0 hr 4 min 9 sec) 
Heartbeat CPU  3 instructions:   39000003 cycles:   19067066 heartbeat IPC: 1.46103 cumulative IPC: 2.04541 (Simulation time: 0 hr 4 min 11 sec) 
Heartbeat CPU  2 instructions:   37000003 cycles:   19140435 heartbeat IPC: 1.71273 cumulative IPC: 1.93308 (Simulation time: 0 hr 4 min 12 sec) 
Heartbeat CPU  0 instructions:   37000001 cycles:   19404122 heartbeat IPC: 1.82528 cumulative IPC: 1.90681 (Simulation time: 0 hr 4 min 15 sec) 
Heartbeat CPU  1 instructions:   37000000 cycles:   19447345 heartbeat IPC: 1.95333 cumulative IPC: 1.90257 (Simulation time: 0 hr 4 min 15 sec) 
Heartbeat CPU  3 instructions:   40000000 cycles:   19611095 heartbeat IPC: 1.83813 cumulative IPC: 2.03966 (Simulation time: 0 hr 4 min 18 sec) 
Heartbeat CPU  2 instructions:   38000001 cycles:   19798538 heartbeat IPC: 1.51952 cumulative IPC: 1.91933 (Simulation time: 0 hr 4 min 20 sec) 
Heartbeat CPU  0 instructions:   38000001 cycles:   19968035 heartbeat IPC: 1.77332 cumulative IPC: 1.90304 (Simulation time: 0 hr 4 min 22 sec) 
Heartbeat CPU  1 instructions:   38000001 cycles:   20029696 heartbeat IPC: 1.71718 cumulative IPC: 1.89718 (Simulation time: 0 hr 4 min 22 sec) 
Heartbeat CPU  3 instructions:   41000001 cycles:   20151692 heartbeat IPC: 1.84981 cumulative IPC: 2.03457 (Simulation time: 0 hr 4 min 24 sec) 
Heartbeat CPU  2 instructions:   39000000 cycles:   20385531 heartbeat IPC: 1.70360 cumulative IPC: 1.91312 (Simulation time: 0 hr 4 min 27 sec) 
Heartbeat CPU  0 instructions:   39000001 cycles:   20493844 heartbeat IPC: 1.90183 cumulative IPC: 1.90301 (Simulation time: 0 hr 4 min 28 sec) 
Heartbeat CPU  1 instructions:   39000003 cycles:   20574568 heartbeat IPC: 1.83530 cumulative IPC: 1.89554 (Simulation time: 0 hr 4 min 29 sec) 
Heartbeat CPU  3 instructions:   42000003 cycles:   20662345 heartbeat IPC: 1.95828 cumulative IPC: 2.03268 (Simulation time: 0 hr 4 min 31 sec) 
Heartbeat CPU  2 instructions:   40000000 cycles:   20926259 heartbeat IPC: 1.84936 cumulative IPC: 1.91147 (Simulation time: 0 hr 4 min 34 sec) 
Heartbeat CPU  0 instructions:   40000000 cycles:   21056251 heartbeat IPC: 1.77807 cumulative IPC: 1.89967 (Simulation time: 0 hr 4 min 36 sec) 
Heartbeat CPU  1 instructions:   40000000 cycles:   21084799 heartbeat IPC: 1.95989 cumulative IPC: 1.89710 (Simulation time: 0 hr 4 min 36 sec) 
Heartbeat CPU  3 instructions:   43000001 cycles:   21187225 heartbeat IPC: 1.90519 cumulative IPC: 2.02952 (Simulation time: 0 hr 4 min 37 sec) 
Heartbeat CPU  2 instructions:   41000002 cycles:   21477415 heartbeat IPC: 1.81437 cumulative IPC: 1.90898 (Simulation time: 0 hr 4 min 41 sec) 
Heartbeat CPU  0 instructions:   41000002 cycles:   21560329 heartbeat IPC: 1.98382 cumulative IPC: 1.90164 (Simulation time: 0 hr 4 min 42 sec) 
Heartbeat CPU  1 instructions:   41000002 cycles:   21595626 heartbeat IPC: 1.95761 cumulative IPC: 1.89853 (Simulation time: 0 hr 4 min 43 sec) 
Heartbeat CPU  3 instructions:   44000000 cycles:   21695547 heartbeat IPC: 1.96725 cumulative IPC: 2.02807 (Simulation time: 0 hr 4 min 44 sec) 
Heartbeat CPU  2 instructions:   42000000 cycles:   22043703 heartbeat IPC: 1.76588 cumulative IPC: 1.90531 (Simulation time: 0 hr 4 min 48 sec) 
Heartbeat CPU  0 instructions:   42000000 cycles:   22079769 heartbeat IPC: 1.92515 cumulative IPC: 1.90219 (Simulation time: 0 hr 4 min 49 sec) 
Heartbeat CPU  1 instructions:   42000000 cycles:   22136882 heartbeat IPC: 1.84755 cumulative IPC: 1.89729 (Simulation time: 0 hr 4 min 50 sec) 
Heartbeat CPU  3 instructions:   45000000 cycles:   22263867 heartbeat IPC: 1.75957 cumulative IPC: 2.02121 (Simulation time: 0 hr 4 min 51 sec) 
Heartbeat CPU  0 instructions:   43000001 cycles:   22596071 heartbeat IPC: 1.93685 cumulative IPC: 1.90299 (Simulation time: 0 hr 4 min 56 sec) 
Heartbeat CPU  2 instructions:   43000000 cycles:   22635089 heartbeat IPC: 1.69094 cumulative IPC: 1.89971 (Simulation time: 0 hr 4 min 56 sec) 
Heartbeat CPU  1 instructions:   43000000 cycles:   22659995 heartbeat IPC: 1.91163 cumulative IPC: 1.89762 (Simulation time: 0 hr 4 min 56 sec) 
Heartbeat CPU  3 instructions:   46000003 cycles:   22805923 heartbeat IPC: 1.84483 cumulative IPC: 2.01702 (Simulation time: 0 hr 4 min 58 sec) 
Heartbeat CPU  0 instructions:   44000000 cycles:   23120921 heartbeat IPC: 1.90530 cumulative IPC: 1.90304 (Simulation time: 0 hr 5 min 2 sec) 
Heartbeat CPU  1 instructions:   44000000 cycles:   23177562 heartbeat IPC: 1.93212 cumulative IPC: 1.89839 (Simulation time: 0 hr 5 min 3 sec) 
Heartbeat CPU  2 instructions:   44000000 cycles:   23197809 heartbeat IPC: 1.77708 cumulative IPC: 1.89673 (Simulation time: 0 hr 5 min 3 sec) 
Heartbeat CPU  3 instructions:   47000002 cycles:   23339657 heartbeat IPC: 1.87359 cumulative IPC: 2.01374 (Simulation time: 0 hr 5 min 5 sec) 
Heartbeat CPU  0 instructions:   45000002 cycles:   23647427 heartbeat IPC: 1.89932 cumulative IPC: 1.90296 (Simulation time: 0 hr 5 min 9 sec) 
Heartbeat CPU  1 instructions:   45000000 cycles:   23701076 heartbeat IPC: 1.91017 cumulative IPC: 1.89865 (Simulation time: 0 hr 5 min 10 sec) 
Heartbeat CPU  2 instructions:   45000000 cycles:   23768682 heartbeat IPC: 1.75170 cumulative IPC: 1.89325 (Simulation time: 0 hr 5 min 11 sec) 
Heartbeat CPU  3 instructions:   48000000 cycles:   23853071 heartbeat IPC: 1.94774 cumulative IPC: 2.01232 (Simulation time: 0 hr 5 min 12 sec) 
Heartbeat CPU  0 instructions:   46000001 cycles:   24172483 heartbeat IPC: 1.90456 cumulative IPC: 1.90299 (Simulation time: 0 hr 5 min 16 sec) 
Heartbeat CPU  1 instructions:   46000000 cycles:   24242056 heartbeat IPC: 1.84850 cumulative IPC: 1.89753 (Simulation time: 0 hr 5 min 17 sec) 
Heartbeat CPU  2 instructions:   46000003 cycles:   24349837 heartbeat IPC: 1.72072 cumulative IPC: 1.88913 (Simulation time: 0 hr 5 min 18 sec) 
Heartbeat CPU  3 instructions:   49000000 cycles:   24395047 heartbeat IPC: 1.84510 cumulative IPC: 2.00860 (Simulation time: 0 hr 5 min 19 sec) 
Heartbeat CPU  0 instructions:   47000001 cycles:   24679232 heartbeat IPC: 1.97336 cumulative IPC: 1.90444 (Simulation time: 0 hr 5 min 22 sec) 
Heartbeat CPU  1 instructions:   47000000 cycles:   24752408 heartbeat IPC: 1.95943 cumulative IPC: 1.89881 (Simulation time: 0 hr 5 min 23 sec) 
Heartbeat CPU  3 instructions:   50000001 cycles:   24899524 heartbeat IPC: 1.98225 cumulative IPC: 2.00807 (Simulation time: 0 hr 5 min 25 sec) 
Heartbeat CPU  2 instructions:   47000000 cycles:   24920482 heartbeat IPC: 1.75240 cumulative IPC: 1.88600 (Simulation time: 0 hr 5 min 25 sec) 
Heartbeat CPU  0 instructions:   48000000 cycles:   25205214 heartbeat IPC: 1.90120 cumulative IPC: 1.90437 (Simulation time: 0 hr 5 min 29 sec) 
Heartbeat CPU  1 instructions:   48000000 cycles:   25281408 heartbeat IPC: 1.89036 cumulative IPC: 1.89863 (Simulation time: 0 hr 5 min 30 sec) 
Heartbeat CPU  3 instructions:   51000003 cycles:   25413042 heartbeat IPC: 1.94736 cumulative IPC: 0.03935 (Simulation time: 0 hr 5 min 32 sec) 
Heartbeat CPU  2 instructions:   48000000 cycles:   25495308 heartbeat IPC: 1.73966 cumulative IPC: 1.88270 (Simulation time: 0 hr 5 min 33 sec) 
Heartbeat CPU  0 instructions:   49000002 cycles:   25721021 heartbeat IPC: 1.93871 cumulative IPC: 1.90506 (Simulation time: 0 hr 5 min 36 sec) 
Heartbeat CPU  1 instructions:   49000000 cycles:   25801325 heartbeat IPC: 1.92338 cumulative IPC: 1.89913 (Simulation time: 0 hr 5 min 37 sec) 
Heartbeat CPU  3 instructions:   52000000 cycles:   25894842 heartbeat IPC: 2.07554 cumulative IPC: 0.07724 (Simulation time: 0 hr 5 min 38 sec) 
Heartbeat CPU  2 instructions:   49000000 cycles:   26068889 heartbeat IPC: 1.74343 cumulative IPC: 1.87964 (Simulation time: 0 hr 5 min 40 sec) 
Heartbeat CPU  0 instructions:   50000001 cycles:   26252033 heartbeat IPC: 1.88319 cumulative IPC: 1.90461 (Simulation time: 0 hr 5 min 43 sec) 
Heartbeat CPU  1 instructions:   50000000 cycles:   26298673 heartbeat IPC: 2.01066 cumulative IPC: 1.90124 (Simulation time: 0 hr 5 min 44 sec) 
Heartbeat CPU  3 instructions:   53000003 cycles:   26389167 heartbeat IPC: 2.02297 cumulative IPC: 0.11368 (Simulation time: 0 hr 5 min 45 sec) 
Heartbeat CPU  2 instructions:   50000003 cycles:   26612800 heartbeat IPC: 1.83854 cumulative IPC: 1.87880 (Simulation time: 0 hr 5 min 48 sec) 

Warmup complete CPU  0 instructions:   50683198 cycles:   26612799 (Simulation time: 0 hr 5 min 48 sec) 
Warmup complete CPU  1 instructions:   50575248 cycles:   26612800 (Simulation time: 0 hr 5 min 48 sec) 
Warmup complete CPU  2 instructions:   50000003 cycles:   26612800 (Simulation time: 0 hr 5 min 48 sec) 
Warmup complete CPU  3 instructions:   53426880 cycles:   26612799 (Simulation time: 0 hr 5 min 48 sec) 

Heartbeat CPU  0 instructions:   51000002 cycles:   28079830 heartbeat IPC: 0.54711 cumulative IPC: 0.21595 (Simulation time: 0 hr 5 min 51 sec) 
Heartbeat CPU  1 instructions:   51000001 cycles:   28612794 heartbeat IPC: 0.43213 cumulative IPC: 0.21238 (Simulation time: 0 hr 5 min 52 sec) 
Heartbeat CPU  3 instructions:   54000000 cycles:   29330914 heartbeat IPC: 0.33993 cumulative IPC: 0.21085 (Simulation time: 0 hr 5 min 53 sec) 
Heartbeat CPU  2 instructions:   51000002 cycles:   32308958 heartbeat IPC: 0.17556 cumulative IPC: 0.17556 (Simulation time: 0 hr 5 min 59 sec) 
Heartbeat CPU  0 instructions:   52000000 cycles:   32971019 heartbeat IPC: 0.20445 cumulative IPC: 0.20710 (Simulation time: 0 hr 6 min 0 sec) 
Heartbeat CPU  1 instructions:   52000000 cycles:   33375033 heartbeat IPC: 0.20999 cumulative IPC: 0.21069 (Simulation time: 0 hr 6 min 1 sec) 
Heartbeat CPU  3 instructions:   55000000 cycles:   34078636 heartbeat IPC: 0.21063 cumulative IPC: 0.21071 (Simulation time: 0 hr 6 min 2 sec) 
Heartbeat CPU  0 instructions:   53000003 cycles:   37629067 heartbeat IPC: 0.21468 cumulative IPC: 0.21031 (Simulation time: 0 hr 6 min 9 sec) 
Heartbeat CPU  2 instructions:   52000000 cycles:   38115130 heartbeat IPC: 0.17223 cumulative IPC: 0.17388 (Simulation time: 0 hr 6 min 10 sec) 
Heartbeat CPU  1 instructions:   53000002 cycles:   38173043 heartbeat IPC: 0.20842 cumulative IPC: 0.20975 (Simulation time: 0 hr 6 min 10 sec) 
Heartbeat CPU  3 instructions:   56000000 cycles:   38763865 heartbeat IPC: 0.21344 cumulative IPC: 0.21176 (Simulation time: 0 hr 6 min 11 sec) 
Heartbeat CPU  0 instructions:   54000002 cycles:   42334996 heartbeat IPC: 0.21250 cumulative IPC: 0.21096 (Simulation time: 0 hr 6 min 18 sec) 
Heartbeat CPU  1 instructions:   54000002 cycles:   42866571 heartbeat IPC: 0.21306 cumulative IPC: 0.21071 (Simulation time: 0 hr 6 min 19 sec) 
Heartbeat CPU  3 instructions:   57000000 cycles:   43468134 heartbeat IPC: 0.21257 cumulative IPC: 0.21199 (Simulation time: 0 hr 6 min 20 sec) 
Heartbeat CPU  2 instructions:   53000002 cycles:   43735495 heartbeat IPC: 0.17792 cumulative IPC: 0.17521 (Simulation time: 0 hr 6 min 21 sec) 
Heartbeat CPU  0 instructions:   55000000 cycles:   47069058 heartbeat IPC: 0.21123 cumulative IPC: 0.21103 (Simulation time: 0 hr 6 min 27 sec) 
Heartbeat CPU  1 instructions:   55000000 cycles:   47560401 heartbeat IPC: 0.21305 cumulative IPC: 0.21123 (Simulation time: 0 hr 6 min 28 sec) 
Heartbeat CPU  3 instructions:   58000003 cycles:   48182578 heartbeat IPC: 0.21211 cumulative IPC: 0.21202 (Simulation time: 0 hr 6 min 29 sec) 
Heartbeat CPU  2 instructions:   54000000 cycles:   49528409 heartbeat IPC: 0.17262 cumulative IPC: 0.17455 (Simulation time: 0 hr 6 min 32 sec) 
Heartbeat CPU  0 instructions:   56000000 cycles:   51763844 heartbeat IPC: 0.21300 cumulative IPC: 0.21139 (Simulation time: 0 hr 6 min 36 sec) 
Heartbeat CPU  1 instructions:   56000000 cycles:   52296488 heartbeat IPC: 0.21114 cumulative IPC: 0.21121 (Simulation time: 0 hr 6 min 37 sec) 
Heartbeat CPU  3 instructions:   59000002 cycles:   52818600 heartbeat IPC: 0.21570 cumulative IPC: 0.21267 (Simulation time: 0 hr 6 min 38 sec) 
Heartbeat CPU  2 instructions:   55000001 cycles:   55285873 heartbeat IPC: 0.17369 cumulative IPC: 0.17438 (Simulation time: 0 hr 6 min 43 sec) 
Heartbeat CPU  0 instructions:   57000002 cycles:   56395824 heartbeat IPC: 0.21589 cumulative IPC: 0.21209 (Simulation time: 0 hr 6 min 45 sec) 
Heartbeat CPU  1 instructions:   57000003 cycles:   56975840 heartbeat IPC: 0.21371 cumulative IPC: 0.21160 (Simulation time: 0 hr 6 min 46 sec) 
Heartbeat CPU  3 instructions:   60000000 cycles:   57726769 heartbeat IPC: 0.20374 cumulative IPC: 0.21126 (Simulation time: 0 hr 6 min 47 sec) 
Heartbeat CPU  2 instructions:   56000000 cycles:   60880412 heartbeat IPC: 0.17875 cumulative IPC: 0.17509 (Simulation time: 0 hr 6 min 53 sec) 
Heartbeat CPU  0 instructions:   58000000 cycles:   61088100 heartbeat IPC: 0.21312 cumulative IPC: 0.21223 (Simulation time: 0 hr 6 min 54 sec) 
Heartbeat CPU  1 instructions:   58000002 cycles:   61702987 heartbeat IPC: 0.21154 cumulative IPC: 0.21159 (Simulation time: 0 hr 6 min 55 sec) 
Heartbeat CPU  3 instructions:   61000001 cycles:   62620853 heartbeat IPC: 0.20433 cumulative IPC: 0.21032 (Simulation time: 0 hr 6 min 56 sec) 
Heartbeat CPU  0 instructions:   59000001 cycles:   65522367 heartbeat IPC: 0.22552 cumulative IPC: 0.21375 (Simulation time: 0 hr 7 min 2 sec) 
Heartbeat CPU  1 instructions:   59000002 cycles:   66381390 heartbeat IPC: 0.21375 cumulative IPC: 0.21184 (Simulation time: 0 hr 7 min 4 sec) 
Heartbeat CPU  2 instructions:   57000003 cycles:   66620675 heartbeat IPC: 0.17421 cumulative IPC: 0.17497 (Simulation time: 0 hr 7 min 5 sec) 
Heartbeat CPU  3 instructions:   62000001 cycles:   67382221 heartbeat IPC: 0.21002 cumulative IPC: 0.21028 (Simulation time: 0 hr 7 min 6 sec) 
Heartbeat CPU  0 instructions:   60000000 cycles:   69423776 heartbeat IPC: 0.25632 cumulative IPC: 0.21763 (Simulation time: 0 hr 7 min 10 sec) 
Heartbeat CPU  1 instructions:   60000000 cycles:   71389916 heartbeat IPC: 0.19966 cumulative IPC: 0.21048 (Simulation time: 0 hr 7 min 14 sec) 
Heartbeat CPU  3 instructions:   63000000 cycles:   72142266 heartbeat IPC: 0.21008 cumulative IPC: 0.21026 (Simulation time: 0 hr 7 min 15 sec) 
Heartbeat CPU  2 instructions:   58000003 cycles:   72298473 heartbeat IPC: 0.17612 cumulative IPC: 0.17511 (Simulation time: 0 hr 7 min 16 sec) 
Heartbeat CPU  0 instructions:   61000000 cycles:   74174986 heartbeat IPC: 0.21047 cumulative IPC: 0.21691 (Simulation time: 0 hr 7 min 19 sec) 
Heartbeat CPU  1 instructions:   61000001 cycles:   76394829 heartbeat IPC: 0.19980 cumulative IPC: 0.20941 (Simulation time: 0 hr 7 min 23 sec) 
Heartbeat CPU  3 instructions:   64000000 cycles:   76816887 heartbeat IPC: 0.21392 cumulative IPC: 0.21060 (Simulation time: 0 hr 7 min 24 sec) 
Heartbeat CPU  2 instructions:   59000001 cycles:   77922424 heartbeat IPC: 0.17781 cumulative IPC: 0.17541 (Simulation time: 0 hr 7 min 26 sec) 
Heartbeat CPU  0 instructions:   62000000 cycles:   78813814 heartbeat IPC: 0.21557 cumulative IPC: 0.21679 (Simulation time: 0 hr 7 min 28 sec) 
Heartbeat CPU  1 instructions:   62000003 cycles:   81132060 heartbeat IPC: 0.21109 cumulative IPC: 0.20955 (Simulation time: 0 hr 7 min 33 sec) 
Heartbeat CPU  3 instructions:   65000000 cycles:   81590613 heartbeat IPC: 0.20948 cumulative IPC: 0.21051 (Simulation time: 0 hr 7 min 33 sec) 
Heartbeat CPU  2 instructions:   60000000 cycles:   83536042 heartbeat IPC: 0.17814 cumulative IPC: 0.17568 (Simulation time: 0 hr 7 min 37 sec) 
Heartbeat CPU  0 instructions:   63000003 cycles:   83570875 heartbeat IPC: 0.21021 cumulative IPC: 0.21624 (Simulation time: 0 hr 7 min 37 sec) 
Heartbeat CPU  1 instructions:   63000001 cycles:   85975292 heartbeat IPC: 0.20647 cumulative IPC: 0.20930 (Simulation time: 0 hr 7 min 42 sec) 
Heartbeat CPU  3 instructions:   66000000 cycles:   86330615 heartbeat IPC: 0.21097 cumulative IPC: 0.21054 (Simulation time: 0 hr 7 min 42 sec) 
Heartbeat CPU  0 instructions:   64000000 cycles:   88281933 heartbeat IPC: 0.21227 cumulative IPC: 0.21594 (Simulation time: 0 hr 7 min 46 sec) 
Heartbeat CPU  2 instructions:   61000000 cycles:   89217131 heartbeat IPC: 0.17602 cumulative IPC: 0.17571 (Simulation time: 0 hr 7 min 48 sec) 
Heartbeat CPU  1 instructions:   64000000 cycles:   90607357 heartbeat IPC: 0.21589 cumulative IPC: 0.20978 (Simulation time: 0 hr 7 min 51 sec) 
Heartbeat CPU  3 instructions:   67000003 cycles:   91083191 heartbeat IPC: 0.21041 cumulative IPC: 0.21053 (Simulation time: 0 hr 7 min 52 sec) 
Heartbeat CPU  1 instructions:   65000000 cycles:   92305437 heartbeat IPC: 0.58890 cumulative IPC: 0.21958 (Simulation time: 0 hr 7 min 55 sec) 
Heartbeat CPU  0 instructions:   65000003 cycles:   92881117 heartbeat IPC: 0.21743 cumulative IPC: 0.21604 (Simulation time: 0 hr 7 min 57 sec) 
Heartbeat CPU  1 instructions:   66000002 cycles:   93234857 heartbeat IPC: 1.07594 cumulative IPC: 0.23153 (Simulation time: 0 hr 7 min 58 sec) 
Heartbeat CPU  1 instructions:   67000001 cycles:   94174655 heartbeat IPC: 1.06406 cumulative IPC: 0.24311 (Simulation time: 0 hr 8 min 1 sec) 
Heartbeat CPU  1 instructions:   68000000 cycles:   94719256 heartbeat IPC: 1.83620 cumulative IPC: 0.25585 (Simulation time: 0 hr 8 min 3 sec) 
Heartbeat CPU  2 instructions:   62000003 cycles:   94975675 heartbeat IPC: 0.17366 cumulative IPC: 0.17553 (Simulation time: 0 hr 8 min 4 sec) 
Heartbeat CPU  1 instructions:   69000002 cycles:   95232023 heartbeat IPC: 1.95021 cumulative IPC: 0.26851 (Simulation time: 0 hr 8 min 5 sec) 
Heartbeat CPU  3 instructions:   68000000 cycles:   95754167 heartbeat IPC: 0.21409 cumulative IPC: 0.21077 (Simulation time: 0 hr 8 min 7 sec) 
Heartbeat CPU  1 instructions:   70000000 cycles:   95763532 heartbeat IPC: 1.88143 cumulative IPC: 0.28090 (Simulation time: 0 hr 8 min 7 sec) 
Heartbeat CPU  1 instructions:   71000002 cycles:   96290905 heartbeat IPC: 1.89619 cumulative IPC: 0.29313 (Simulation time: 0 hr 8 min 9 sec) 
Heartbeat CPU  1 instructions:   72000000 cycles:   96841045 heartbeat IPC: 1.81772 cumulative IPC: 0.30507 (Simulation time: 0 hr 8 min 11 sec) 
Heartbeat CPU  1 instructions:   73000003 cycles:   97421268 heartbeat IPC: 1.72348 cumulative IPC: 0.31670 (Simulation time: 0 hr 8 min 14 sec) 
Heartbeat CPU  0 instructions:   66000001 cycles:   97443723 heartbeat IPC: 0.21917 cumulative IPC: 0.21624 (Simulation time: 0 hr 8 min 14 sec) 
Heartbeat CPU  1 instructions:   74000000 cycles:   98030542 heartbeat IPC: 1.64129 cumulative IPC: 0.32800 (Simulation time: 0 hr 8 min 16 sec) 
Heartbeat CPU  1 instructions:   75000003 cycles:   98672940 heartbeat IPC: 1.55667 cumulative IPC: 0.33895 (Simulation time: 0 hr 8 min 18 sec) 
Heartbeat CPU  1 instructions:   76000000 cycles:   99229564 heartbeat IPC: 1.79654 cumulative IPC: 0.35012 (Simulation time: 0 hr 8 min 21 sec) 
Heartbeat CPU  1 instructions:   77000003 cycles:   99780535 heartbeat IPC: 1.81498 cumulative IPC: 0.36115 (Simulation time: 0 hr 8 min 23 sec) 
Heartbeat CPU  3 instructions:   69000003 cycles:  100416984 heartbeat IPC: 0.21446 cumulative IPC: 0.21101 (Simulation time: 0 hr 8 min 25 sec) 
Heartbeat CPU  1 instructions:   78000003 cycles:  100546968 heartbeat IPC: 1.30475 cumulative IPC: 0.37093 (Simulation time: 0 hr 8 min 25 sec) 
Heartbeat CPU  2 instructions:   63000003 cycles:  100873936 heartbeat IPC: 0.16954 cumulative IPC: 0.17506 (Simulation time: 0 hr 8 min 27 sec) 
Heartbeat CPU  1 instructions:   79000003 cycles:  101184287 heartbeat IPC: 1.56907 cumulative IPC: 0.38117 (Simulation time: 0 hr 8 min 28 sec) 
Heartbeat CPU  1 instructions:   80000000 cycles:  101830837 heartbeat IPC: 1.54667 cumulative IPC: 0.39119 (Simulation time: 0 hr 8 min 30 sec) 
Heartbeat CPU  0 instructions:   67000000 cycles:  102085930 heartbeat IPC: 0.21541 cumulative IPC: 0.21619 (Simulation time: 0 hr 8 min 31 sec) 
Heartbeat CPU  1 instructions:   81000003 cycles:  102498062 heartbeat IPC: 1.49875 cumulative IPC: 0.40093 (Simulation time: 0 hr 8 min 33 sec) 
Heartbeat CPU  1 instructions:   82000002 cycles:  103094586 heartbeat IPC: 1.67638 cumulative IPC: 0.41088 (Simulation time: 0 hr 8 min 35 sec) 
Heartbeat CPU  1 instructions:   83000002 cycles:  103761131 heartbeat IPC: 1.50027 cumulative IPC: 0.42029 (Simulation time: 0 hr 8 min 38 sec) 
Heartbeat CPU  2 instructions:   64000000 cycles:  104264844 heartbeat IPC: 0.29491 cumulative IPC: 0.18029 (Simulation time: 0 hr 8 min 40 sec) 
Heartbeat CPU  1 instructions:   84000000 cycles:  104393720 heartbeat IPC: 1.58080 cumulative IPC: 0.42973 (Simulation time: 0 hr 8 min 41 sec) 
Heartbeat CPU  1 instructions:   85000001 cycles:  105037741 heartbeat IPC: 1.55275 cumulative IPC: 0.43895 (Simulation time: 0 hr 8 min 44 sec) 
Heartbeat CPU  3 instructions:   70000003 cycles:  105090607 heartbeat IPC: 0.21397 cumulative IPC: 0.21118 (Simulation time: 0 hr 8 min 44 sec) 
Heartbeat CPU  1 instructions:   86000000 cycles:  105546950 heartbeat IPC: 1.96383 cumulative IPC: 0.44879 (Simulation time: 0 hr 8 min 46 sec) 
Heartbeat CPU  1 instructions:   87000002 cycles:  106074583 heartbeat IPC: 1.89526 cumulative IPC: 0.45839 (Simulation time: 0 hr 8 min 49 sec) 
Heartbeat CPU  2 instructions:   65000000 cycles:  106087650 heartbeat IPC: 0.54860 cumulative IPC: 0.18874 (Simulation time: 0 hr 8 min 49 sec) 
Heartbeat CPU  0 instructions:   68000000 cycles:  106753064 heartbeat IPC: 0.21426 cumulative IPC: 0.21608 (Simulation time: 0 hr 8 min 51 sec) 
Heartbeat CPU  2 instructions:   66000002 cycles:  107728847 heartbeat IPC: 0.60931 cumulative IPC: 0.19725 (Simulation time: 0 hr 8 min 54 sec) 
Heartbeat CPU  1 instructions:   88000000 cycles:  108221288 heartbeat IPC: 0.46583 cumulative IPC: 0.45859 (Simulation time: 0 hr 8 min 55 sec) 
Heartbeat CPU  2 instructions:   67000000 cycles:  109260572 heartbeat IPC: 0.65286 cumulative IPC: 0.20569 (Simulation time: 0 hr 8 min 58 sec) 
Heartbeat CPU  3 instructions:   71000002 cycles:  109793708 heartbeat IPC: 0.21263 cumulative IPC: 0.21126 (Simulation time: 0 hr 8 min 59 sec) 
Heartbeat CPU  2 instructions:   68000000 cycles:  110680707 heartbeat IPC: 0.70416 cumulative IPC: 0.21411 (Simulation time: 0 hr 9 min 1 sec) 
Heartbeat CPU  0 instructions:   69000003 cycles:  111387434 heartbeat IPC: 0.21578 cumulative IPC: 0.21606 (Simulation time: 0 hr 9 min 3 sec) 
Heartbeat CPU  2 instructions:   69000000 cycles:  112058445 heartbeat IPC: 0.72583 cumulative IPC: 0.22236 (Simulation time: 0 hr 9 min 5 sec) 
Heartbeat CPU  1 instructions:   89000003 cycles:  112956429 heartbeat IPC: 0.21119 cumulative IPC: 0.44502 (Simulation time: 0 hr 9 min 8 sec) 
Heartbeat CPU  2 instructions:   70000002 cycles:  113492716 heartbeat IPC: 0.69722 cumulative IPC: 0.23020 (Simulation time: 0 hr 9 min 9 sec) 
Heartbeat CPU  3 instructions:   72000000 cycles:  114461493 heartbeat IPC: 0.21423 cumulative IPC: 0.21142 (Simulation time: 0 hr 9 min 12 sec) 
Heartbeat CPU  2 instructions:   71000002 cycles:  114769649 heartbeat IPC: 0.78313 cumulative IPC: 0.23821 (Simulation time: 0 hr 9 min 13 sec) 
Heartbeat CPU  2 instructions:   72000000 cycles:  115695461 heartbeat IPC: 1.08013 cumulative IPC: 0.24696 (Simulation time: 0 hr 9 min 15 sec) 
Heartbeat CPU  0 instructions:   70000003 cycles:  116202486 heartbeat IPC: 0.20768 cumulative IPC: 0.21561 (Simulation time: 0 hr 9 min 17 sec) 
Heartbeat CPU  2 instructions:   73000000 cycles:  116692811 heartbeat IPC: 1.00266 cumulative IPC: 0.25533 (Simulation time: 0 hr 9 min 19 sec) 
Heartbeat CPU  2 instructions:   74000001 cycles:  117674013 heartbeat IPC: 1.01916 cumulative IPC: 0.26356 (Simulation time: 0 hr 9 min 22 sec) 
Heartbeat CPU  1 instructions:   90000001 cycles:  117680304 heartbeat IPC: 0.21169 cumulative IPC: 0.43292 (Simulation time: 0 hr 9 min 22 sec) 
Heartbeat CPU  2 instructions:   75000000 cycles:  118602710 heartbeat IPC: 1.07678 cumulative IPC: 0.27177 (Simulation time: 0 hr 9 min 25 sec) 
Heartbeat CPU  3 instructions:   73000003 cycles:  119236326 heartbeat IPC: 0.20943 cumulative IPC: 0.21132 (Simulation time: 0 hr 9 min 27 sec) 
Heartbeat CPU  2 instructions:   76000000 cycles:  119552791 heartbeat IPC: 1.05254 cumulative IPC: 0.27975 (Simulation time: 0 hr 9 min 27 sec) 
Heartbeat CPU  0 instructions:   71000003 cycles:  119880429 heartbeat IPC: 0.27189 cumulative IPC: 0.21783 (Simulation time: 0 hr 9 min 29 sec) 
Heartbeat CPU  0 instructions:   72000000 cycles:  120570061 heartbeat IPC: 1.45004 cumulative IPC: 0.22688 (Simulation time: 0 hr 9 min 32 sec) 
Heartbeat CPU  2 instructions:   77000003 cycles:  121028683 heartbeat IPC: 0.67756 cumulative IPC: 0.28597 (Simulation time: 0 hr 9 min 34 sec) 
Heartbeat CPU  0 instructions:   73000001 cycles:  121248818 heartbeat IPC: 1.47328 cumulative IPC: 0.23582 (Simulation time: 0 hr 9 min 35 sec) 
Heartbeat CPU  0 instructions:   74000001 cycles:  121778615 heartbeat IPC: 1.88752 cumulative IPC: 0.24501 (Simulation time: 0 hr 9 min 37 sec) 
Heartbeat CPU  0 instructions:   75000001 cycles:  122308761 heartbeat IPC: 1.88627 cumulative IPC: 0.25410 (Simulation time: 0 hr 9 min 40 sec) 
Heartbeat CPU  1 instructions:   91000000 cycles:  122407476 heartbeat IPC: 0.21154 cumulative IPC: 0.42199 (Simulation time: 0 hr 9 min 40 sec) 
Heartbeat CPU  2 instructions:   78000000 cycles:  122640805 heartbeat IPC: 0.62030 cumulative IPC: 0.29158 (Simulation time: 0 hr 9 min 41 sec) 
Heartbeat CPU  0 instructions:   76000000 cycles:  122897369 heartbeat IPC: 1.69892 cumulative IPC: 0.26294 (Simulation time: 0 hr 9 min 42 sec) 
Heartbeat CPU  2 instructions:   79000001 cycles:  124051514 heartbeat IPC: 0.70886 cumulative IPC: 0.29762 (Simulation time: 0 hr 9 min 46 sec) 
Heartbeat CPU  3 instructions:   74000001 cycles:  124088610 heartbeat IPC: 0.20609 cumulative IPC: 0.21106 (Simulation time: 0 hr 9 min 46 sec) 
Heartbeat CPU  2 instructions:   80000000 cycles:  125394686 heartbeat IPC: 0.74451 cumulative IPC: 0.30370 (Simulation time: 0 hr 9 min 49 sec) 
Heartbeat CPU  2 instructions:   81000003 cycles:  126844073 heartbeat IPC: 0.68995 cumulative IPC: 0.30928 (Simulation time: 0 hr 9 min 53 sec) 
Heartbeat CPU  1 instructions:   92000000 cycles:  127064047 heartbeat IPC: 0.21475 cumulative IPC: 0.41239 (Simulation time: 0 hr 9 min 54 sec) 
Heartbeat CPU  0 instructions:   77000001 cycles:  127560101 heartbeat IPC: 0.21447 cumulative IPC: 0.26070 (Simulation time: 0 hr 9 min 55 sec) 
Heartbeat CPU  2 instructions:   82000000 cycles:  128240856 heartbeat IPC: 0.71593 cumulative IPC: 0.31487 (Simulation time: 0 hr 9 min 57 sec) 
Heartbeat CPU  3 instructions:   75000002 cycles:  128942221 heartbeat IPC: 0.20603 cumulative IPC: 0.21082 (Simulation time: 0 hr 9 min 59 sec) 
Heartbeat CPU  2 instructions:   83000001 cycles:  129739641 heartbeat IPC: 0.66721 cumulative IPC: 0.31999 (Simulation time: 0 hr 10 min 1 sec) 
Heartbeat CPU  2 instructions:   84000000 cycles:  131261714 heartbeat IPC: 0.65700 cumulative IPC: 0.32490 (Simulation time: 0 hr 10 min 5 sec) 
Heartbeat CPU  1 instructions:   93000000 cycles:  131829809 heartbeat IPC: 0.20983 cumulative IPC: 0.40321 (Simulation time: 0 hr 10 min 6 sec) 
Heartbeat CPU  0 instructions:   78000002 cycles:  132201139 heartbeat IPC: 0.21547 cumulative IPC: 0.25871 (Simulation time: 0 hr 10 min 7 sec) 
Heartbeat CPU  2 instructions:   85000000 cycles:  132724230 heartbeat IPC: 0.68375 cumulative IPC: 0.32984 (Simulation time: 0 hr 10 min 9 sec) 
Heartbeat CPU  3 instructions:   76000000 cycles:  133646564 heartbeat IPC: 0.21257 cumulative IPC: 0.21090 (Simulation time: 0 hr 10 min 11 sec) 
Heartbeat CPU  2 instructions:   86000001 cycles:  134093139 heartbeat IPC: 0.73051 cumulative IPC: 0.33494 (Simulation time: 0 hr 10 min 12 sec) 
Heartbeat CPU  2 instructions:   87000001 cycles:  135479620 heartbeat IPC: 0.72125 cumulative IPC: 0.33986 (Simulation time: 0 hr 10 min 16 sec) 
Heartbeat CPU  1 instructions:   94000000 cycles:  136620063 heartbeat IPC: 0.20876 cumulative IPC: 0.39474 (Simulation time: 0 hr 10 min 19 sec) 
Heartbeat CPU  0 instructions:   79000002 cycles:  136773633 heartbeat IPC: 0.21870 cumulative IPC: 0.25705 (Simulation time: 0 hr 10 min 19 sec) 
Heartbeat CPU  3 instructions:   77000003 cycles:  138337497 heartbeat IPC: 0.21318 cumulative IPC: 0.21099 (Simulation time: 0 hr 10 min 22 sec) 
Heartbeat CPU  2 instructions:   88000000 cycles:  138661467 heartbeat IPC: 0.31428 cumulative IPC: 0.33914 (Simulation time: 0 hr 10 min 23 sec) 
Heartbeat CPU  0 instructions:   80000000 cycles:  141348070 heartbeat IPC: 0.21861 cumulative IPC: 0.25552 (Simulation time: 0 hr 10 min 28 sec) 
Heartbeat CPU  1 instructions:   95000002 cycles:  141402332 heartbeat IPC: 0.20911 cumulative IPC: 0.38701 (Simulation time: 0 hr 10 min 28 sec) 
Heartbeat CPU  2 instructions:   89000003 cycles:  143015801 heartbeat IPC: 0.22966 cumulative IPC: 0.33504 (Simulation time: 0 hr 10 min 32 sec) 
Heartbeat CPU  3 instructions:   78000002 cycles:  143120041 heartbeat IPC: 0.20909 cumulative IPC: 0.21091 (Simulation time: 0 hr 10 min 32 sec) 
Heartbeat CPU  2 instructions:   90000000 cycles:  144945096 heartbeat IPC: 0.51832 cumulative IPC: 0.33803 (Simulation time: 0 hr 10 min 36 sec) 
Heartbeat CPU  0 instructions:   81000002 cycles:  146033600 heartbeat IPC: 0.21342 cumulative IPC: 0.25387 (Simulation time: 0 hr 10 min 39 sec) 
Heartbeat CPU  1 instructions:   96000000 cycles:  146044287 heartbeat IPC: 0.21543 cumulative IPC: 0.38034 (Simulation time: 0 hr 10 min 39 sec) 
Heartbeat CPU  2 instructions:   91000000 cycles:  146791487 heartbeat IPC: 0.54160 cumulative IPC: 0.34116 (Simulation time: 0 hr 10 min 41 sec) 
Heartbeat CPU  3 instructions:   79000001 cycles:  147755862 heartbeat IPC: 0.21571 cumulative IPC: 0.21110 (Simulation time: 0 hr 10 min 43 sec) 
Heartbeat CPU  2 instructions:   92000000 cycles:  148616358 heartbeat IPC: 0.54798 cumulative IPC: 0.34425 (Simulation time: 0 hr 10 min 45 sec) 
Heartbeat CPU  0 instructions:   82000003 cycles:  150644089 heartbeat IPC: 0.21690 cumulative IPC: 0.25249 (Simulation time: 0 hr 10 min 49 sec) 
Heartbeat CPU  1 instructions:   97000000 cycles:  150806091 heartbeat IPC: 0.21000 cumulative IPC: 0.37381 (Simulation time: 0 hr 10 min 50 sec) 
Heartbeat CPU  3 instructions:   80000000 cycles:  152442125 heartbeat IPC: 0.21339 cumulative IPC: 0.21118 (Simulation time: 0 hr 10 min 53 sec) 
Heartbeat CPU  2 instructions:   93000001 cycles:  153168625 heartbeat IPC: 0.21967 cumulative IPC: 0.33977 (Simulation time: 0 hr 10 min 54 sec) 
Heartbeat CPU  0 instructions:   83000001 cycles:  155105709 heartbeat IPC: 0.22413 cumulative IPC: 0.25151 (Simulation time: 0 hr 10 min 58 sec) 
Heartbeat CPU  1 instructions:   98000003 cycles:  155538334 heartbeat IPC: 0.21132 cumulative IPC: 0.36785 (Simulation time: 0 hr 10 min 59 sec) 
Heartbeat CPU  3 instructions:   81000000 cycles:  157087223 heartbeat IPC: 0.21528 cumulative IPC: 0.21133 (Simulation time: 0 hr 11 min 2 sec) 
Heartbeat CPU  2 instructions:   94000000 cycles:  158920979 heartbeat IPC: 0.17384 cumulative IPC: 0.33256 (Simulation time: 0 hr 11 min 6 sec) 
Heartbeat CPU  0 instructions:   84000000 cycles:  159805201 heartbeat IPC: 0.21279 cumulative IPC: 0.25014 (Simulation time: 0 hr 11 min 7 sec) 
Heartbeat CPU  1 instructions:   99000000 cycles:  160271811 heartbeat IPC: 0.21126 cumulative IPC: 0.36230 (Simulation time: 0 hr 11 min 8 sec) 
Heartbeat CPU  3 instructions:   82000003 cycles:  161814394 heartbeat IPC: 0.21154 cumulative IPC: 0.21134 (Simulation time: 0 hr 11 min 11 sec) 
Heartbeat CPU  0 instructions:   85000002 cycles:  164449565 heartbeat IPC: 0.21532 cumulative IPC: 0.24897 (Simulation time: 0 hr 11 min 16 sec) 
Heartbeat CPU  2 instructions:   95000000 cycles:  164741250 heartbeat IPC: 0.17181 cumulative IPC: 0.32578 (Simulation time: 0 hr 11 min 17 sec) 
*** Reached end of trace for Core: 1 Repeating trace: /data3/STREAMING/traces/streaming_phase2_core1.trace.xz
Heartbeat CPU  1 instructions:  100000000 cycles:  164987415 heartbeat IPC: 0.21206 cumulative IPC: 0.35718 (Simulation time: 0 hr 11 min 17 sec) 
Heartbeat CPU  3 instructions:   83000003 cycles:  166512242 heartbeat IPC: 0.21286 cumulative IPC: 0.21139 (Simulation time: 0 hr 11 min 21 sec) 
Heartbeat CPU  0 instructions:   86000000 cycles:  169097448 heartbeat IPC: 0.21515 cumulative IPC: 0.24786 (Simulation time: 0 hr 11 min 26 sec) 
Heartbeat CPU  1 instructions:  101000001 cycles:  169659457 heartbeat IPC: 0.21404 cumulative IPC: 0.35251 (Simulation time: 0 hr 11 min 27 sec) 
Heartbeat CPU  2 instructions:   96000000 cycles:  170517663 heartbeat IPC: 0.17312 cumulative IPC: 0.31966 (Simulation time: 0 hr 11 min 28 sec) 
Heartbeat CPU  3 instructions:   84000000 cycles:  171213919 heartbeat IPC: 0.21269 cumulative IPC: 0.21143 (Simulation time: 0 hr 11 min 30 sec) 
Heartbeat CPU  0 instructions:   87000003 cycles:  173800011 heartbeat IPC: 0.21265 cumulative IPC: 0.24674 (Simulation time: 0 hr 11 min 35 sec) 
Heartbeat CPU  1 instructions:  102000001 cycles:  174227529 heartbeat IPC: 0.21891 cumulative IPC: 0.34837 (Simulation time: 0 hr 11 min 36 sec) 
Heartbeat CPU  3 instructions:   85000002 cycles:  175853340 heartbeat IPC: 0.21554 cumulative IPC: 0.21156 (Simulation time: 0 hr 11 min 39 sec) 
Heartbeat CPU  2 instructions:   97000001 cycles:  176329517 heartbeat IPC: 0.17206 cumulative IPC: 0.31393 (Simulation time: 0 hr 11 min 40 sec) 
Heartbeat CPU  0 instructions:   88000000 cycles:  178230811 heartbeat IPC: 0.22569 cumulative IPC: 0.24612 (Simulation time: 0 hr 11 min 43 sec) 
Heartbeat CPU  1 instructions:  103000001 cycles:  178794499 heartbeat IPC: 0.21896 cumulative IPC: 0.34449 (Simulation time: 0 hr 11 min 45 sec) 
Heartbeat CPU  3 instructions:   86000001 cycles:  180464892 heartbeat IPC: 0.21685 cumulative IPC: 0.21172 (Simulation time: 0 hr 11 min 48 sec) 
Heartbeat CPU  2 instructions:   98000000 cycles:  182264196 heartbeat IPC: 0.16850 cumulative IPC: 0.30838 (Simulation time: 0 hr 11 min 51 sec) 
Heartbeat CPU  0 instructions:   89000000 cycles:  182945800 heartbeat IPC: 0.21209 cumulative IPC: 0.24510 (Simulation time: 0 hr 11 min 53 sec) 
Heartbeat CPU  1 instructions:  104000000 cycles:  183423000 heartbeat IPC: 0.21605 cumulative IPC: 0.34070 (Simulation time: 0 hr 11 min 54 sec) 
Heartbeat CPU  3 instructions:   87000001 cycles:  185068306 heartbeat IPC: 0.21723 cumulative IPC: 0.21188 (Simulation time: 0 hr 11 min 57 sec) 
Heartbeat CPU  0 instructions:   90000003 cycles:  187656332 heartbeat IPC: 0.21229 cumulative IPC: 0.24414 (Simulation time: 0 hr 12 min 2 sec) 
Heartbeat CPU  1 instructions:  105000000 cycles:  188019385 heartbeat IPC: 0.21756 cumulative IPC: 0.33719 (Simulation time: 0 hr 12 min 2 sec) 
Heartbeat CPU  2 instructions:   99000001 cycles:  188116825 heartbeat IPC: 0.17086 cumulative IPC: 0.30340 (Simulation time: 0 hr 12 min 3 sec) 
Heartbeat CPU  3 instructions:   88000000 cycles:  189733419 heartbeat IPC: 0.21436 cumulative IPC: 0.21195 (Simulation time: 0 hr 12 min 6 sec) 
Heartbeat CPU  0 instructions:   91000003 cycles:  192360658 heartbeat IPC: 0.21257 cumulative IPC: 0.24324 (Simulation time: 0 hr 12 min 11 sec) 
Heartbeat CPU  1 instructions:  106000002 cycles:  192723530 heartbeat IPC: 0.21258 cumulative IPC: 0.33366 (Simulation time: 0 hr 12 min 12 sec) 
*** Reached end of trace for Core: 2 Repeating trace: /data3/STREAMING/traces/streaming_phase2_core2.trace.xz
Heartbeat CPU  2 instructions:  100000000 cycles:  193694837 heartbeat IPC: 0.17928 cumulative IPC: 0.29925 (Simulation time: 0 hr 12 min 14 sec) 
Heartbeat CPU  3 instructions:   89000003 cycles:  194487346 heartbeat IPC: 0.21035 cumulative IPC: 0.21190 (Simulation time: 0 hr 12 min 16 sec) 
Heartbeat CPU  2 instructions:  101000001 cycles:  195208397 heartbeat IPC: 0.66069 cumulative IPC: 0.30250 (Simulation time: 0 hr 12 min 18 sec) 
Heartbeat CPU  2 instructions:  102000002 cycles:  196594491 heartbeat IPC: 0.72145 cumulative IPC: 0.30592 (Simulation time: 0 hr 12 min 21 sec) 
Heartbeat CPU  0 instructions:   92000000 cycles:  196984355 heartbeat IPC: 0.21628 cumulative IPC: 0.24251 (Simulation time: 0 hr 12 min 22 sec) 
Heartbeat CPU  1 instructions:  107000002 cycles:  197451449 heartbeat IPC: 0.21151 cumulative IPC: 0.33028 (Simulation time: 0 hr 12 min 24 sec) 
Heartbeat CPU  2 instructions:  103000002 cycles:  197936214 heartbeat IPC: 0.74531 cumulative IPC: 0.30936 (Simulation time: 0 hr 12 min 25 sec) 
Heartbeat CPU  3 instructions:   90000001 cycles:  199211904 heartbeat IPC: 0.21166 cumulative IPC: 0.21190 (Simulation time: 0 hr 12 min 28 sec) 
Heartbeat CPU  2 instructions:  104000000 cycles:  199363053 heartbeat IPC: 0.70085 cumulative IPC: 0.31259 (Simulation time: 0 hr 12 min 29 sec) 
Heartbeat CPU  2 instructions:  105000000 cycles:  200850587 heartbeat IPC: 0.67225 cumulative IPC: 0.31566 (Simulation time: 0 hr 12 min 33 sec) 
Heartbeat CPU  0 instructions:   93000001 cycles:  201642804 heartbeat IPC: 0.21466 cumulative IPC: 0.24177 (Simulation time: 0 hr 12 min 35 sec) 
Heartbeat CPU  1 instructions:  108000000 cycles:  202187826 heartbeat IPC: 0.21113 cumulative IPC: 0.32707 (Simulation time: 0 hr 12 min 36 sec) 
Heartbeat CPU  2 instructions:  106000000 cycles:  202276068 heartbeat IPC: 0.70152 cumulative IPC: 0.31879 (Simulation time: 0 hr 12 min 36 sec) 
Heartbeat CPU  2 instructions:  107000000 cycles:  203748536 heartbeat IPC: 0.67913 cumulative IPC: 0.32179 (Simulation time: 0 hr 12 min 40 sec) 
Heartbeat CPU  3 instructions:   91000002 cycles:  203832040 heartbeat IPC: 0.21644 cumulative IPC: 0.21201 (Simulation time: 0 hr 12 min 40 sec) 
Heartbeat CPU  2 instructions:  108000000 cycles:  205187503 heartbeat IPC: 0.69494 cumulative IPC: 0.32479 (Simulation time: 0 hr 12 min 44 sec) 
Heartbeat CPU  0 instructions:   94000003 cycles:  206247088 heartbeat IPC: 0.21719 cumulative IPC: 0.24114 (Simulation time: 0 hr 12 min 47 sec) 
Heartbeat CPU  2 instructions:  109000000 cycles:  206661781 heartbeat IPC: 0.67830 cumulative IPC: 0.32769 (Simulation time: 0 hr 12 min 48 sec) 
Heartbeat CPU  1 instructions:  109000003 cycles:  206828927 heartbeat IPC: 0.21547 cumulative IPC: 0.32419 (Simulation time: 0 hr 12 min 48 sec) 
Heartbeat CPU  3 instructions:   92000000 cycles:  208393436 heartbeat IPC: 0.21923 cumulative IPC: 0.21220 (Simulation time: 0 hr 12 min 52 sec) 
Heartbeat CPU  2 instructions:  110000001 cycles:  210528139 heartbeat IPC: 0.25864 cumulative IPC: 0.32624 (Simulation time: 0 hr 12 min 56 sec) 
Heartbeat CPU  0 instructions:   95000002 cycles:  210978632 heartbeat IPC: 0.21135 cumulative IPC: 0.24037 (Simulation time: 0 hr 12 min 57 sec) 
Heartbeat CPU  1 instructions:  110000002 cycles:  211612230 heartbeat IPC: 0.20906 cumulative IPC: 0.32122 (Simulation time: 0 hr 12 min 58 sec) 
Heartbeat CPU  3 instructions:   93000000 cycles:  213060297 heartbeat IPC: 0.21428 cumulative IPC: 0.21225 (Simulation time: 0 hr 13 min 1 sec) 
Heartbeat CPU  0 instructions:   96000000 cycles:  215678569 heartbeat IPC: 0.21277 cumulative IPC: 0.23969 (Simulation time: 0 hr 13 min 6 sec) 
Heartbeat CPU  1 instructions:  111000003 cycles:  216333516 heartbeat IPC: 0.21181 cumulative IPC: 0.31849 (Simulation time: 0 hr 13 min 7 sec) 
Heartbeat CPU  2 instructions:  111000002 cycles:  216361322 heartbeat IPC: 0.17143 cumulative IPC: 0.32148 (Simulation time: 0 hr 13 min 7 sec) 
Heartbeat CPU  3 instructions:   94000002 cycles:  217823653 heartbeat IPC: 0.20994 cumulative IPC: 0.21219 (Simulation time: 0 hr 13 min 10 sec) 
Heartbeat CPU  0 instructions:   97000000 cycles:  220394961 heartbeat IPC: 0.21203 cumulative IPC: 0.23901 (Simulation time: 0 hr 13 min 15 sec) 
Heartbeat CPU  1 instructions:  112000000 cycles:  221109214 heartbeat IPC: 0.20939 cumulative IPC: 0.31581 (Simulation time: 0 hr 13 min 17 sec) 
Heartbeat CPU  2 instructions:  112000000 cycles:  222025219 heartbeat IPC: 0.17656 cumulative IPC: 0.31728 (Simulation time: 0 hr 13 min 18 sec) 
Heartbeat CPU  3 instructions:   95000000 cycles:  222601021 heartbeat IPC: 0.20932 cumulative IPC: 0.21212 (Simulation time: 0 hr 13 min 19 sec) 
Heartbeat CPU  0 instructions:   98000000 cycles:  225091864 heartbeat IPC: 0.21291 cumulative IPC: 0.23840 (Simulation time: 0 hr 13 min 24 sec) 
Heartbeat CPU  1 instructions:  113000003 cycles:  225809236 heartbeat IPC: 0.21277 cumulative IPC: 0.31338 (Simulation time: 0 hr 13 min 26 sec) 
Heartbeat CPU  3 instructions:   96000000 cycles:  227256220 heartbeat IPC: 0.21481 cumulative IPC: 0.21218 (Simulation time: 0 hr 13 min 28 sec) 
Heartbeat CPU  2 instructions:  113000003 cycles:  227856146 heartbeat IPC: 0.17150 cumulative IPC: 0.31305 (Simulation time: 0 hr 13 min 29 sec) 
Heartbeat CPU  0 instructions:   99000000 cycles:  229832588 heartbeat IPC: 0.21094 cumulative IPC: 0.23776 (Simulation time: 0 hr 13 min 33 sec) 
Heartbeat CPU  1 instructions:  114000000 cycles:  230598571 heartbeat IPC: 0.20880 cumulative IPC: 0.31093 (Simulation time: 0 hr 13 min 35 sec) 
Heartbeat CPU  3 instructions:   97000000 cycles:  232205712 heartbeat IPC: 0.20204 cumulative IPC: 0.21194 (Simulation time: 0 hr 13 min 38 sec) 
Heartbeat CPU  2 instructions:  114000003 cycles:  233685733 heartbeat IPC: 0.17154 cumulative IPC: 0.30907 (Simulation time: 0 hr 13 min 40 sec) 
*** Reached end of trace for Core: 0 Repeating trace: /data3/STREAMING/traces/streaming_phase2_core0.trace.xz
Heartbeat CPU  0 instructions:  100000000 cycles:  234522080 heartbeat IPC: 0.21324 cumulative IPC: 0.23720 (Simulation time: 0 hr 13 min 42 sec) 
Heartbeat CPU  1 instructions:  115000001 cycles:  235342669 heartbeat IPC: 0.21079 cumulative IPC: 0.30865 (Simulation time: 0 hr 13 min 43 sec) 
Heartbeat CPU  3 instructions:   98000002 cycles:  237008192 heartbeat IPC: 0.20823 cumulative IPC: 0.21185 (Simulation time: 0 hr 13 min 47 sec) 
Heartbeat CPU  0 instructions:  101000002 cycles:  239155936 heartbeat IPC: 0.21580 cumulative IPC: 0.23674 (Simulation time: 0 hr 13 min 51 sec) 
Heartbeat CPU  2 instructions:  115000002 cycles:  239430683 heartbeat IPC: 0.17407 cumulative IPC: 0.30543 (Simulation time: 0 hr 13 min 51 sec) 
Heartbeat CPU  1 instructions:  116000000 cycles:  239990234 heartbeat IPC: 0.21517 cumulative IPC: 0.30662 (Simulation time: 0 hr 13 min 52 sec) 
Heartbeat CPU  3 instructions:   99000002 cycles:  241749225 heartbeat IPC: 0.21092 cumulative IPC: 0.21183 (Simulation time: 0 hr 13 min 56 sec) 
Heartbeat CPU  0 instructions:  102000000 cycles:  243644675 heartbeat IPC: 0.22278 cumulative IPC: 0.23645 (Simulation time: 0 hr 13 min 59 sec) 
Heartbeat CPU  1 instructions:  117000003 cycles:  244965825 heartbeat IPC: 0.20098 cumulative IPC: 0.30421 (Simulation time: 0 hr 14 min 2 sec) 
Heartbeat CPU  2 instructions:  116000000 cycles:  245202213 heartbeat IPC: 0.17326 cumulative IPC: 0.30194 (Simulation time: 0 hr 14 min 2 sec) 
*** Reached end of trace for Core: 3 Repeating trace: /data3/STREAMING/traces/streaming_phase2_core3.trace.xz
Heartbeat CPU  3 instructions:  100000000 cycles:  246256151 heartbeat IPC: 0.22188 cumulative IPC: 0.21204 (Simulation time: 0 hr 14 min 4 sec) 
Heartbeat CPU  3 instructions:  101000000 cycles:  246833232 heartbeat IPC: 1.73286 cumulative IPC: 0.21603 (Simulation time: 0 hr 14 min 7 sec) 
Heartbeat CPU  3 instructions:  102000000 cycles:  247391533 heartbeat IPC: 1.79115 cumulative IPC: 0.22001 (Simulation time: 0 hr 14 min 9 sec) 
Heartbeat CPU  3 instructions:  103000003 cycles:  247916468 heartbeat IPC: 1.90500 cumulative IPC: 0.22400 (Simulation time: 0 hr 14 min 11 sec) 
Heartbeat CPU  0 instructions:  103000002 cycles:  248236280 heartbeat IPC: 0.21779 cumulative IPC: 0.23606 (Simulation time: 0 hr 14 min 12 sec) 
Heartbeat CPU  3 instructions:  104000000 cycles:  248446864 heartbeat IPC: 1.88538 cumulative IPC: 0.22798 (Simulation time: 0 hr 14 min 13 sec) 
Heartbeat CPU  3 instructions:  105000001 cycles:  249001610 heartbeat IPC: 1.80263 cumulative IPC: 0.23191 (Simulation time: 0 hr 14 min 15 sec) 
Heartbeat CPU  3 instructions:  106000000 cycles:  249531551 heartbeat IPC: 1.88700 cumulative IPC: 0.23584 (Simulation time: 0 hr 14 min 17 sec) 
Heartbeat CPU  1 instructions:  118000001 cycles:  249789721 heartbeat IPC: 0.20730 cumulative IPC: 0.30211 (Simulation time: 0 hr 14 min 18 sec) 
Heartbeat CPU  3 instructions:  107000001 cycles:  250037127 heartbeat IPC: 1.97794 cumulative IPC: 0.23978 (Simulation time: 0 hr 14 min 19 sec) 
Heartbeat CPU  3 instructions:  108000000 cycles:  250566378 heartbeat IPC: 1.88946 cumulative IPC: 0.24368 (Simulation time: 0 hr 14 min 22 sec) 
Heartbeat CPU  2 instructions:  117000003 cycles:  250986709 heartbeat IPC: 0.17288 cumulative IPC: 0.29861 (Simulation time: 0 hr 14 min 23 sec) 
Heartbeat CPU  3 instructions:  109000003 cycles:  251087178 heartbeat IPC: 1.92013 cumulative IPC: 0.24757 (Simulation time: 0 hr 14 min 24 sec) 
Heartbeat CPU  0 instructions:  104000000 cycles:  252876879 heartbeat IPC: 0.21549 cumulative IPC: 0.23564 (Simulation time: 0 hr 14 min 28 sec) 
Heartbeat CPU  3 instructions:  110000001 cycles:  253937048 heartbeat IPC: 0.35089 cumulative IPC: 0.24887 (Simulation time: 0 hr 14 min 30 sec) 
Heartbeat CPU  1 instructions:  119000001 cycles:  254545378 heartbeat IPC: 0.21028 cumulative IPC: 0.30020 (Simulation time: 0 hr 14 min 31 sec) 
Heartbeat CPU  2 instructions:  118000002 cycles:  256870316 heartbeat IPC: 0.16996 cumulative IPC: 0.29532 (Simulation time: 0 hr 14 min 35 sec) 
Heartbeat CPU  0 instructions:  105000003 cycles:  257561441 heartbeat IPC: 0.21347 cumulative IPC: 0.23519 (Simulation time: 0 hr 14 min 37 sec) 
Heartbeat CPU  3 instructions:  111000002 cycles:  258674098 heartbeat IPC: 0.21110 cumulative IPC: 0.24809 (Simulation time: 0 hr 14 min 39 sec) 
Heartbeat CPU  1 instructions:  120000000 cycles:  259151872 heartbeat IPC: 0.21708 cumulative IPC: 0.29855 (Simulation time: 0 hr 14 min 40 sec) 
Heartbeat CPU  0 instructions:  106000000 cycles:  262107659 heartbeat IPC: 0.21996 cumulative IPC: 0.23490 (Simulation time: 0 hr 14 min 45 sec) 
Heartbeat CPU  2 instructions:  119000001 cycles:  262719016 heartbeat IPC: 0.17098 cumulative IPC: 0.29224 (Simulation time: 0 hr 14 min 47 sec) 
Heartbeat CPU  3 instructions:  112000000 cycles:  263386818 heartbeat IPC: 0.21219 cumulative IPC: 0.24738 (Simulation time: 0 hr 14 min 48 sec) 
Heartbeat CPU  1 instructions:  121000001 cycles:  263734579 heartbeat IPC: 0.21821 cumulative IPC: 0.29700 (Simulation time: 0 hr 14 min 48 sec) 
Heartbeat CPU  0 instructions:  107000001 cycles:  266704030 heartbeat IPC: 0.21756 cumulative IPC: 0.23456 (Simulation time: 0 hr 14 min 54 sec) 
Heartbeat CPU  3 instructions:  113000003 cycles:  268128733 heartbeat IPC: 0.21089 cumulative IPC: 0.24666 (Simulation time: 0 hr 14 min 57 sec) 
Heartbeat CPU  1 instructions:  122000002 cycles:  268463409 heartbeat IPC: 0.21147 cumulative IPC: 0.29533 (Simulation time: 0 hr 14 min 58 sec) 
Heartbeat CPU  2 instructions:  120000000 cycles:  268616853 heartbeat IPC: 0.16955 cumulative IPC: 0.28925 (Simulation time: 0 hr 14 min 58 sec) 
Heartbeat CPU  0 instructions:  108000000 cycles:  271299063 heartbeat IPC: 0.21763 cumulative IPC: 0.23425 (Simulation time: 0 hr 15 min 3 sec) 
Heartbeat CPU  3 instructions:  114000003 cycles:  272784323 heartbeat IPC: 0.21480 cumulative IPC: 0.24606 (Simulation time: 0 hr 15 min 6 sec) 
Heartbeat CPU  1 instructions:  123000000 cycles:  273192413 heartbeat IPC: 0.21146 cumulative IPC: 0.29372 (Simulation time: 0 hr 15 min 7 sec) 
Heartbeat CPU  2 instructions:  121000000 cycles:  274343178 heartbeat IPC: 0.17463 cumulative IPC: 0.28660 (Simulation time: 0 hr 15 min 9 sec) 
Heartbeat CPU  0 instructions:  109000003 cycles:  276083619 heartbeat IPC: 0.20901 cumulative IPC: 0.23376 (Simulation time: 0 hr 15 min 12 sec) 
Heartbeat CPU  3 instructions:  115000000 cycles:  277495448 heartbeat IPC: 0.21226 cumulative IPC: 0.24543 (Simulation time: 0 hr 15 min 15 sec) 
Heartbeat CPU  1 instructions:  124000000 cycles:  277893275 heartbeat IPC: 0.21273 cumulative IPC: 0.29220 (Simulation time: 0 hr 15 min 16 sec) 
Heartbeat CPU  2 instructions:  122000000 cycles:  280360395 heartbeat IPC: 0.16619 cumulative IPC: 0.28375 (Simulation time: 0 hr 15 min 20 sec) 
Heartbeat CPU  0 instructions:  110000003 cycles:  280790324 heartbeat IPC: 0.21246 cumulative IPC: 0.23337 (Simulation time: 0 hr 15 min 21 sec) 
Heartbeat CPU  3 instructions:  116000000 cycles:  282498415 heartbeat IPC: 0.19988 cumulative IPC: 0.24454 (Simulation time: 0 hr 15 min 24 sec) 
Heartbeat CPU  1 instructions:  125000001 cycles:  282627110 heartbeat IPC: 0.21125 cumulative IPC: 0.29071 (Simulation time: 0 hr 15 min 24 sec) 
Heartbeat CPU  0 instructions:  111000002 cycles:  285380730 heartbeat IPC: 0.21785 cumulative IPC: 0.23309 (Simulation time: 0 hr 15 min 30 sec) 
Heartbeat CPU  2 instructions:  123000003 cycles:  286249919 heartbeat IPC: 0.16979 cumulative IPC: 0.28116 (Simulation time: 0 hr 15 min 31 sec) 
Heartbeat CPU  1 instructions:  126000001 cycles:  287395588 heartbeat IPC: 0.20971 cumulative IPC: 0.28922 (Simulation time: 0 hr 15 min 33 sec) 
Heartbeat CPU  3 instructions:  117000003 cycles:  287455206 heartbeat IPC: 0.20174 cumulative IPC: 0.24372 (Simulation time: 0 hr 15 min 34 sec) 
Heartbeat CPU  0 instructions:  112000000 cycles:  290025886 heartbeat IPC: 0.21528 cumulative IPC: 0.23278 (Simulation time: 0 hr 15 min 38 sec) 
Heartbeat CPU  2 instructions:  124000000 cycles:  292053300 heartbeat IPC: 0.17231 cumulative IPC: 0.27878 (Simulation time: 0 hr 15 min 42 sec) 
Heartbeat CPU  1 instructions:  127000001 cycles:  292084324 heartbeat IPC: 0.21328 cumulative IPC: 0.28788 (Simulation time: 0 hr 15 min 43 sec) 
Heartbeat CPU  3 instructions:  118000000 cycles:  292097799 heartbeat IPC: 0.21540 cumulative IPC: 0.24323 (Simulation time: 0 hr 15 min 43 sec) 
Heartbeat CPU  0 instructions:  113000001 cycles:  294686718 heartbeat IPC: 0.21455 cumulative IPC: 0.23246 (Simulation time: 0 hr 15 min 48 sec) 
Heartbeat CPU  1 instructions:  128000000 cycles:  296709087 heartbeat IPC: 0.21623 cumulative IPC: 0.28666 (Simulation time: 0 hr 15 min 51 sec) 
Heartbeat CPU  3 instructions:  119000001 cycles:  296761671 heartbeat IPC: 0.21441 cumulative IPC: 0.24273 (Simulation time: 0 hr 15 min 51 sec) 
Heartbeat CPU  2 instructions:  125000002 cycles:  298002098 heartbeat IPC: 0.16810 cumulative IPC: 0.27636 (Simulation time: 0 hr 15 min 54 sec) 
Heartbeat CPU  0 instructions:  114000001 cycles:  299481412 heartbeat IPC: 0.20856 cumulative IPC: 0.23204 (Simulation time: 0 hr 15 min 57 sec) 
Heartbeat CPU  1 instructions:  129000003 cycles:  301384538 heartbeat IPC: 0.21388 cumulative IPC: 0.28542 (Simulation time: 0 hr 16 min 0 sec) 
Heartbeat CPU  3 instructions:  120000000 cycles:  301476821 heartbeat IPC: 0.21208 cumulative IPC: 0.24220 (Simulation time: 0 hr 16 min 0 sec) 
Heartbeat CPU  2 instructions:  126000003 cycles:  303934803 heartbeat IPC: 0.16856 cumulative IPC: 0.27405 (Simulation time: 0 hr 16 min 5 sec) 
Heartbeat CPU  0 instructions:  115000003 cycles:  304226184 heartbeat IPC: 0.21076 cumulative IPC: 0.23168 (Simulation time: 0 hr 16 min 6 sec) 
Heartbeat CPU  1 instructions:  130000003 cycles:  306031944 heartbeat IPC: 0.21517 cumulative IPC: 0.28425 (Simulation time: 0 hr 16 min 9 sec) 
Heartbeat CPU  3 instructions:  121000000 cycles:  306067474 heartbeat IPC: 0.21783 cumulative IPC: 0.24180 (Simulation time: 0 hr 16 min 9 sec) 
Heartbeat CPU  0 instructions:  116000000 cycles:  308995190 heartbeat IPC: 0.20969 cumulative IPC: 0.23131 (Simulation time: 0 hr 16 min 15 sec) 
Heartbeat CPU  2 instructions:  127000000 cycles:  309775378 heartbeat IPC: 0.17122 cumulative IPC: 0.27193 (Simulation time: 0 hr 16 min 16 sec) 
Heartbeat CPU  1 instructions:  131000002 cycles:  310642603 heartbeat IPC: 0.21689 cumulative IPC: 0.28316 (Simulation time: 0 hr 16 min 18 sec) 
Heartbeat CPU  3 instructions:  122000001 cycles:  310733880 heartbeat IPC: 0.21430 cumulative IPC: 0.24135 (Simulation time: 0 hr 16 min 18 sec) 
Heartbeat CPU  0 instructions:  117000001 cycles:  313676842 heartbeat IPC: 0.21360 cumulative IPC: 0.23102 (Simulation time: 0 hr 16 min 24 sec) 
Heartbeat CPU  1 instructions:  132000000 cycles:  315381053 heartbeat IPC: 0.21104 cumulative IPC: 0.28197 (Simulation time: 0 hr 16 min 27 sec) 
Heartbeat CPU  3 instructions:  123000002 cycles:  315426586 heartbeat IPC: 0.21310 cumulative IPC: 0.24089 (Simulation time: 0 hr 16 min 27 sec) 
Heartbeat CPU  2 instructions:  128000000 cycles:  315617486 heartbeat IPC: 0.17117 cumulative IPC: 0.26989 (Simulation time: 0 hr 16 min 27 sec) 
Heartbeat CPU  0 instructions:  118000003 cycles:  318399954 heartbeat IPC: 0.21173 cumulative IPC: 0.23071 (Simulation time: 0 hr 16 min 33 sec) 
Heartbeat CPU  1 instructions:  133000003 cycles:  320031106 heartbeat IPC: 0.21505 cumulative IPC: 0.28091 (Simulation time: 0 hr 16 min 36 sec) 
Heartbeat CPU  3 instructions:  124000000 cycles:  320038842 heartbeat IPC: 0.21681 cumulative IPC: 0.24051 (Simulation time: 0 hr 16 min 36 sec) 
Heartbeat CPU  2 instructions:  129000002 cycles:  321554315 heartbeat IPC: 0.16844 cumulative IPC: 0.26785 (Simulation time: 0 hr 16 min 39 sec) 
Heartbeat CPU  0 instructions:  119000000 cycles:  323197064 heartbeat IPC: 0.20846 cumulative IPC: 0.23035 (Simulation time: 0 hr 16 min 42 sec) 
Heartbeat CPU  1 instructions:  134000003 cycles:  324749945 heartbeat IPC: 0.21192 cumulative IPC: 0.27982 (Simulation time: 0 hr 16 min 45 sec) 
Heartbeat CPU  3 instructions:  125000000 cycles:  324781711 heartbeat IPC: 0.21084 cumulative IPC: 0.24004 (Simulation time: 0 hr 16 min 45 sec) 
Heartbeat CPU  2 instructions:  130000000 cycles:  327433681 heartbeat IPC: 0.17009 cumulative IPC: 0.26594 (Simulation time: 0 hr 16 min 50 sec) 
Heartbeat CPU  0 instructions:  120000000 cycles:  327803984 heartbeat IPC: 0.21706 cumulative IPC: 0.23014 (Simulation time: 0 hr 16 min 50 sec) 
Heartbeat CPU  1 instructions:  135000001 cycles:  329407043 heartbeat IPC: 0.21473 cumulative IPC: 0.27882 (Simulation time: 0 hr 16 min 54 sec) 
Heartbeat CPU  3 instructions:  126000000 cycles:  329604259 heartbeat IPC: 0.20736 cumulative IPC: 0.23952 (Simulation time: 0 hr 16 min 54 sec) 
Heartbeat CPU  0 instructions:  121000001 cycles:  332473306 heartbeat IPC: 0.21416 cumulative IPC: 0.22990 (Simulation time: 0 hr 16 min 59 sec) 
Heartbeat CPU  2 instructions:  131000002 cycles:  333373746 heartbeat IPC: 0.16835 cumulative IPC: 0.26405 (Simulation time: 0 hr 17 min 1 sec) 
Heartbeat CPU  1 instructions:  136000000 cycles:  334170527 heartbeat IPC: 0.20993 cumulative IPC: 0.27775 (Simulation time: 0 hr 17 min 3 sec) 
Heartbeat CPU  3 instructions:  127000000 cycles:  334235490 heartbeat IPC: 0.21593 cumulative IPC: 0.23917 (Simulation time: 0 hr 17 min 3 sec) 
Heartbeat CPU  0 instructions:  122000001 cycles:  337225180 heartbeat IPC: 0.21044 cumulative IPC: 0.22960 (Simulation time: 0 hr 17 min 8 sec) 
Heartbeat CPU  1 instructions:  137000003 cycles:  338886922 heartbeat IPC: 0.21203 cumulative IPC: 0.27676 (Simulation time: 0 hr 17 min 12 sec) 
Heartbeat CPU  3 instructions:  128000000 cycles:  338939323 heartbeat IPC: 0.21259 cumulative IPC: 0.23877 (Simulation time: 0 hr 17 min 12 sec) 
Heartbeat CPU  2 instructions:  132000000 cycles:  339288310 heartbeat IPC: 0.16907 cumulative IPC: 0.26225 (Simulation time: 0 hr 17 min 12 sec) 
Heartbeat CPU  0 instructions:  123000000 cycles:  341937087 heartbeat IPC: 0.21223 cumulative IPC: 0.22934 (Simulation time: 0 hr 17 min 17 sec) 
Heartbeat CPU  1 instructions:  138000003 cycles:  343653240 heartbeat IPC: 0.20981 cumulative IPC: 0.27575 (Simulation time: 0 hr 17 min 21 sec) 
[...]
IIIIIIIIIA22222222222222I4II22222I22I222222AAA222222222222222244
IIIIIIIIIA22I22222222222I4II22222I22I222222AAA222222222222222244
IIIIIIIIII22I22222222222I4II22222I22I222222AAA222222222222222244
IIIIIIIIII22I22222222222I4II22222I22I222222AAA22222222222222I244
IIIIIIIIII22I22222222222I4II22222I22I222222AIA22222222222222I244
IIIIIIIIII22I22222222222I4II22222I22I222222AII22222222222222I244
IIIIIIIIII22I22222222222I4A2222222222222222AII22222222222222I244
IIIIIIIIII22I22222222222I4AA222222222222222AII22222222222222I244
IIIIIIIIII22I22222222222I4AA22222I222222222AII22222222222222I244
IIIIIIIIII22I22222222222I4AA22222I22I222222AII22222222222222I244
IIIIIIIIII22I22222222222I4IA22222I22I222222AII22222222222222I244
IIIIIIIIII22I22222222222I4II22222I22I222222AII22222222222222I244
IIIIIIIIII22I22222222222I4A2222222222222222AII22222222222222I244
IIIIIIIIII22I22222222222I4AA222222222222222AII22222222222222I244
IIIIIIIIII22I22222222222I4AA22222I222222222AII22222222222222I244
IIIIIIIIII22I22222222222I4IA22222I222222222AII22222222222222I244
IIIIIIIIII22I22222222222I4II22222I222222222AII22222222222222I244
IIIIIIIIII22I22222222222I4II22222I22I222222AII22222222222222I244
IIIIIIIIII22I22222222222I4II22222I22I222222AA2222222222222224244
IIIIIIIIII22I22222222222I4II22222I22I222222AAA222222222222224244
IIIIIIIIII22I22222222222I4A2222222222222222AAA222222222222224244
IIIIIIIIII22I22222222222I4AA222222222222222AAA222222222222224244
IIIIIIIIII22I22222222222I4AA222222222222222AAI222222222222224244
IIIIIIIIII22I22222222222I4AA222222222222222AII222222222222224244
IIIIIIIIII22I22222222222I4AI222222222222222AII222222222222224244
IIIIIIIIII22I22222222222I4AI22222I222222222AII222222222222224244
IIIIIIIIA22222222222222244AI22222I222222222AII222222222222224244
IIIIIIIIAA2222222222222244AI22222I222222222AII222222222222224244
IIIIIIIIAA2222222222222244AI22222I22I222222AII222222222222224244
IIIIIIIIAA2222222222222244II22222I22I222222AII222222222222224244
IIIIIIIIAA22I2222222222244II22222I22I222222AII222222222222224244
IIIIIIIIIA22I2222222222244II22222I22I222222AII222222222222224244
IIIIIIIIII22I2222222222244II22222I22I222222AII222222222222224244
IIIIIIIIII22I2222222222244II22222I22I222222AA2222222222222224244
IIIIIIIIII22I2222222222244II22222I22I222222AAA222222222222224244
IIIIIIIIII22I2222222222244II22222I22I222222AIA222222222222224244
IIIIIIIIII22I2222222222244II22222I22I222222AII222222222222224244
IIIIIIIIA22222222222222244II22222I22I222222AII222222222222224244
IIIIIIIIAA2222222222222224II22222I22I222222AII222222222222224244
IIIIIIIIAA2222222222222224A2222222222222222AII222222222222224244
IIIIIIIIAA2222222222222224AA222222222222222AII222222222222224244
IIIIIIIIAA22I2222222222224AA222222222222222AII222222222222224244
IIIIIIIIAA22I22222222222I4AA222222222222222AII222222222222224244
IIIIIIIIIA22I22222222222I4AA222222222222222AII222222222222224244
IIIIIIIIII22I22222222222I4AA222222222222222AII222222222222224244
IIIIIIIIII22I22222222222I4AA22222I222222222AII222222222222224244
IIIIIIIIII22I22222222222I4AA22222I22I222222AII222222222222224244
IIIIIIIIII22I22222222222I4IA22222I22I222222AII222222222222224244
IIIIIIIIII22I22222222222I4IA22222I22I222222AA2222222222222224244
IIIIIIIIII22I22222222222I4IA22222I22I222222AAA222222222222222244
IIIIIIIIII22I22222222222I4IA22222I22I222222AIA222222222222222244
IIIIIIIIII22I22222222222I4IA22222I22I222222AIA22222222222222I244
IIIIIIIIII22I22222222222I4AA222222222222222AIA22222222222222I244
IIIIIIIIA22222222222222244AA222222222222222AIA22222222222222I244
IIIIIIIIAA2222222222222244AA222222222222222AIA22222222222222I244
IIIIIIIIAA2222222222222244AA22222I222222222AIA22222222222222I244
IIIIIIIIAA2222222222222244AA22222I22I222222AIA22222222222222I244
IIIIIIIIAA2222222222222244IA22222I22I222222AIA22222222222222I244
IIIIIIIIAA2222222222222244II22222I22I222222AIA22222222222222I244
IIIIIIIIIA2222222222222244II22222I22I222222AIA22222222222222I244
IIIIIIIIIA22I2222222222244II22222I22I222222AIA22222222222222I244
IIIIIIIIAA2222222222222244II22222I22I222222AIA22222222222222I244
IIIIIIIIAA22I2222222222244II22222I22I222222AIA22222222222222I244
IIIIIIIIAI22I2222222222244II22222I22I222222AIA22222222222222I244
IIIIIIIIAI22I2222222222244A2222222222222222AIA22222222222222I244
IIIIIIIIAI22I2222222222244AA222222222222222AIA22222222222222I244
IIIIIIIIAI22I2222222222244AA222222222222222AAA222222222222224244
IIIIIIIIAI22I2222222222244AA22222I222222222AAA222222222222224244
IIIIIIIIAI22I2222222222244AA22222I222222222AAI222222222222224244
IIIIIIIIAI22I2222222222244AI22222I222222222AAI222222222222224244
IIIIIIIIAI22I2222222222244AI22222I22I222222AAI222222222222224244
IIIIIIIIAI22I2222222222244II22222I22I222222AAI222222222222224244
IIIIIIIIA22222222222222244II22222I22I222222AAI222222222222224244
IIIIIIIIAA2222222222222244II22222I22I222222AAI222222222222224244
IIIIIIIIAA22I2222222222244II22222I22I222222AAI222222222222224244
IIIIIIIIAI22I2222222222244II22222I22I222222AAI222222222222224244
IIIIIIIIII22I2222222222244II22222I22I222222AAI222222222222224244
IIIIIIIIII22I2222222222244II22222I22I222222AA2222222222222224244
IIIIIIIIII22I2222222222244II22222I22I222222AAA222222222222224244
IIIIIIIIII22I2222222222244A2222222222222222AAA222222222222224244
IIIIIIIIII22I2222222222244AA222222222222222AAA222222222222224244
IIIIIIIIII22I2222222222244AA22222222I222222AAA222222222222224244
IIIIIIIIII22I2222222222244AA22222222I222222AIA222222222222224244
IIIIIIIIII22I2222222222244AA22222222I222222AII222222222222224244
IIIIIIIIII22I2222222222244AA22222I22I222222AII222222222222224244
IIIIIIIIII22I2222222222244AI22222I22I222222AII222222222222224244
IIIIIIIIII22I2222222222244II22222I22I222222AII222222222222224244
IIIIIIIIII22I2222222222244A2222222222222222AII222222222222224244
IIIIIIIIII22I2222222222244AA222222222222222AII222222222222224244
IIIIIIIIII22I2222222222244AA222222222222222AA2222222222222224244
IIIIIIIIII22I2222222222244AA222222222222222AAA222222222222224244
IIIIIIIIII22I2222222222244AA22222222I222222AAA222222222222224244
IIIIIIIIII22I2222222222244AA22222I22I222222AAA222222222222224244
IIIIIIIIII22I2222222222244IA22222I22I222222AAA222222222222224244
IIIIIIIIII22I2222222222244II22222I22I222222AAA222222222222224244
IIIIIIIIA22222222222222244II22222I22I222222AAA222222222222224244
IIIIIIIIAA2222222222222224II22222I22I222222AAA222222222222224244
IIIIIIIIAA2222222222222224II22222I22I222222AIA222222222222224244
IIIIIIIIAA2222222222222224II22222I22I222222AII222222222222224244
IIIIIIIIAA22I2222222222224II22222I22I222222AII222222222222224244
IIIIIIIIIA22I2222222222224II22222I22I222222AII222222222222224244
IIIIIIIIIA22I22222222222I4II22222I22I222222AII222222222222224244
IIIIIIIIII22I22222222222I4II22222I22I222222AII222222222222224244
IIIIIIIIII22I22222222222I4II22222I22I222222AA4222222222222224244
IIIIIIIIII22I22222222222I4II22222I22I222222AAA222222222222224244
IIIIIIIIA22222222222222244II22222I22I222222AAA222222222222224244
IIIIIIIIAA2222222222222244II22222I22I222222AAA222222222222224244
IIIIIIIIAA2222222222222244A2222222222222222AAA222222222222224244
IIIIIIIIAA2222222222222244AA222222222222222AAA222222222222224244
IIIIIIIIAA2222222222222244AA22222222I222222AAA222222222222224244
IIIIIIIIAA2222222222222244IA22222222I222222AAA222222222222224244
IIIIIIIIAA22I2222222222244IA22222222I222222AAA222222222222224244
IIIIIIIIAA22I2222222222244IA22222222I222222AIA222222222222224244
IIIIIIIIIA22I2222222222244IA22222222I222222AIA222222222222224244
IIIIIIIIIA22I2222222222244IA22222222I222222AII222222222222224244
IIIIIIIIII22I2222222222244IA22222222I222222AII222222222222224244
IIIIIIIIII22I2222222222244AA22222222I222222AII222222222222224244
IIIIIIIIA22222222222222224AA22222222I222222AII222222222222224244
IIIIIIIIAA2222222222222222AA22222222I222222AII222222222222224244
IIIIIIIIAI2222222222222222AA22222222I222222AII222222222222224244
IIIIIIIIAI22I2222222222222AA22222222I222222AII222222222222224244
IIIIIIIIAI22I222222222222IAA22222222I222222AII222222222222224244
IIIIIIIIAI22I222222222222IAA22222222I222222AA2222222222222224244
IIIIIIIIAI22I222222222222IAA22222222I222222AAA222222222222224244
IIIIIIIIAI22I222222222222IAA22222222I222222AIA222222222222224244
IIIIIIIIAI22I222222222222IAA22222222I222222AII222222222222224244
IIIIIIIIA2222222222222222IAA22222222I222222AII222222222222224244
IIIIIIIIAA2222222222222224AA22222222I222222AII222222222222224244
IIIIIIIIAA2222222222222224AA222222222222222AII222222222222224244
IIIIIIIIAA22I2222222222224AA222222222222222AII222222222222224244
IIIIIIIIIA22I2222222222224AA222222222222222AII222222222222224244
IIIIIIIIII22I2222222222224AA222222222222222AII222222222222224244
IIIIIIIIII22I2222222222224AA22222222I222222AII222222222222224244
IIIIIIIIII22I2222222222224AI22222222I222222AII222222222222224244
IIIIIIIIII22I2222222222224AI22222222I222222AA2222222222222224244
IIIIIIIIII22I2222222222224AI22222222I222222AAA222222222222224244
IIIIIIIIII22I2222222222224AI22222222I222222AAI222222222222224244
IIIIIIIIA22222222222222224AI22222222I222222AAI222222222222224244
IIIIIIIIAA2222222222222224AI22222222I222222AAI222222222222224244
IIIIIIIIIA2222222222222224AI22222222I222222AAI222222222222224244
IIIIIIIIII2222222222222224AI22222222I222222AAI222222222222224244
IIIIIIIIII22I2222222222224AI22222222I222222AAI222222222222224244
IIIIIIIIII22I2222222222224A2222222222222222AAI222222222222224244
IIIIIIIIII22I2222222222224AA222222222222222AAI222222222222224244
IIIIIIIIA22222222222222224AA222222222222222AAI222222222222224244
IIIIIIIIAA2222222222222224AA222222222222222AAI222222222222224244
IIIIIIIIAA2222222222222224AA22222222I222222AAI222222222222224244
IIIIIIIIAA2222222222222224AI22222222I222222AAI222222222222224244
IIIIIIIIAA2222222222222224II22222222I222222AAI222222222222224244
IIIIIIIIIA2222222222222224II22222222I222222AAI222222222222224244
IIIIIIIIII2222222222222224II22222222I222222AAI222222222222224244
IIIIIIIIA42222222222222224II22222222I222222AAI222222222222224244
IIIIIIIIAA2222222222222224II22222222I222222AAI222222222222224244
IIIIIIIIAA2222222222222224A422222222I222222AAI222222222222224244
IIIIIIIIAA2222222222222224AA222222224222222AAI222222222222224244
IIIIIIIIAA2222222222222224AA222222224222222AA2222222222222224244
IIIIIIIIAA2222222222222224AA222222224222222AAA222222222222224244
IIIIIIIIAI2222222222222224AA222222224222222AAA222222222222224244
IIIIIIIIAI2222222222222224IA222222224222222AAA222222222222224244
IIIIIIIIII2222222222222224IA222222224222222AAA222222222222224244
IIIIIIIIII2222222222222224II222222224222222AAA222222222222224244
IIIIIIIIII2222222222222224II222222224222222AAI222222222222224244
IIIIIIIIII2222222222222224II222222224222222AII222222222222224244
IIIIIIIIII2222222222222224A2222222222222222AII222222222222224244
IIIIIIIIII2222222222222224AA222222222222222AII222222222222224244
IIIIIIIIA22222222222222224AA222222222222222AII222222222222224244
IIIIIIIIAA2222222222222224AA222222222222222AII222222222222224244
IIIIIIIIAI2222222222222224AA222222222222222AII222222222222224244
IIIIIIIIAI2222222222222224AA22222222I222222AII222222222222224244
IIIIIIIIAI2222222222222224IA22222222I222222AII222222222222224244
IIIIIIIIAI2222222222222224II22222222I222222AII222222222222224244
IIIIIIIIAI2222222222222224II22222222I222222AA2222222222222224244
IIIIIIIIAI2222222222222224II22222222I222222AAA222222222222224244
IIIIIIIIAI2222222222222224II22222222I222222AAI222222222222224244
IIIIIIIIAI2222222222222224II22222222I222222AA2222222222222224244
IIIIIIIIAI2222222222222224II22222222I222222AAA222222222222224244
IIIIIIIIA22222222222222224II22222222I222222AAA222222222222224244
IIIIIIIIAA2222222222222224II22222222I222222AAA222222222222224244
IIIIIIIIAA2222222222222224II22222222I222222AIA222222222222224244
IIIIIIIIAA2222222222222224A2222222222222222AIA222222222222224244
IIIIIIIIAA2222222222222224AA222222222222222AIA222222222222224244
IIIIIIIIIA2222222222222224AA222222222222222AIA222222222222224244
IIIIIIIIII2222222222222224AA222222222222222AIA222222222222224244
IIIIIIIIII2222222222222224AA22222222I222222AIA222222222222224244
IIIIIIIIII2222222222222224AI22222222I222222AIA222222222222224244
IIIIIIIIII2222222222222224AI22222222I222222AAA222222222222224244
IIIIIIIIII2222222222222224A4222222224222222AAA222222222222224244
IIIIIIIIII2222222222222224AA222222224222222AAA222222222222224244
IIIIIIIIA42222222222222224AA222222224222222AAA222222222222224244
IIIIIIIIAA2222222222222224AA222222224222222AAA222222222222224244
IIIIIIIIIA2222222222222224AA222222224222222AAA222222222222224244
IIIIIIIIIA2222222222222224IA222222224222222AAA222222222222224244
IIIIIIIIAA2222222222222224IA222222224222222AAA222222222222224244
IIIIIIIIAA2222222222222224AA222222224222222AAA222222222222224244
IIIIIIIIIA2222222222222224AA222222224222222AAA222222222222224244
IIIIIIIIIA2222222222222224IA222222224222222AAA222222222222224244
IIIIIIIIIA2222222222222224II222222224222222AAA222222222222224244
IIIIIIIIAA2222222222222224II222222224222222AAA222222222222224244
IIIIIIIIAA2222222222222224II222222224222222AIA222222222222224244
IIIIIIIIAA2222222222222224II222222224222222AII222222222222224244
IIIIIIIIIA2222222222222224II222222224222222AII222222222222224244
IIIIIIIIAA2222222222222224II222222224222222AII222222222222224244
IIIIIIIIAA2222222222222222II222222224222222AII222222222222224244
IIIIIIIIAA2222222222222222II222222224222222AA2222222222222224244
IIIIIIIIAA2222222222222222II222222224222222AAA222222222222222244
IIIIIIIIAA222222222222222III222222224222222AAA222222222222222244
IIIIIIIIIA222222222222222III222222224222222AAA222222222222222244
IIIIIIIIII222222222222222III222222224222222AAA222222222222222244
IIIIIIIIII222222222222222III222222224222222AAI222222222222222244
IIIIIIIIII222222222222222III222222224222222AAI22222222222222I244
IIIIIIIIII222222222222222III222222224222222AII22222222222222I244
IIIIIIIIA2222222222222222III222222224222222AII22222222222222I244
IIIIIIIIAA2222222222222224II222222224222222AII22222222222222I244
IIIIIIIIAA2222222222222224II222222224222222AA2222222222222224244
IIIIIIIIAA2222222222222224II222222224222222AAA222222222222224244
IIIIIIIIIA2222222222222224II222222224222222AAA222222222222224244
IIIIIIIIIA2222222222222224II222222224222222AIA222222222222224244
IIIIIIIIAA2222222222222224II222222224222222AIA222222222222224244
IIIIIIIIAA2222222222222224II222222224222222AII222222222222224244
IIIIIIIIIA2222222222222224II222222224222222AII222222222222224244
IIIIIIIIIA2222222222222224II222222224222222AA2222222222222224244
IIIIIIIIIA2222222222222224II222222224222222AAA222222222222224244
IIIIIIIIAA2222222222222224II222222224222222AAA222222222222224244
IIIIIIIIAA2222222222222224II222222224222222AIA222222222222224244
IIIIIIIIAA2222222222222224II222222224222222AII222222222222224244
IIIIIIIIAI2222222222222224II222222224222222AII222222222222224244
IIIIIIIIII2222222222222224II222222224222222AII222222222222224244
IIIIIIIIII2222222222222224II222222224222222AA2222222222222224244
IIIIIIIIII2222222222222224II222222224222222AAA222222222222222244
IIIIIIIIII2222222222222224II222222224222222AIA222222222222222244
IIIIIIIIII2222222222222224II222222224222222AII222222222222222244
IIIIIIIIII2222222222222224II222222224222222AII22222222222222I244
IIIIIIIIA22222222222222224II222222224222222AII22222222222222I244
IIIIIIIIAA2222222222222222II222222224222222AII22222222222222I244
IIIIIIIIAA222222222222222III222222224222222AII22222222222222I244
IIIIIIIIIA222222222222222III222222224222222AII22222222222222I244
IIIIIIIIII222222222222222III222222224222222AII22222222222222I244
IIIIIIIIII222222222222222III222222224222222AA2222222222222224244
IIIIIIIIII222222222222222III222222224222222AAA222222222222224244
IIIIIIIIA2222222222222222III222222224222222AAA222222222222224244
IIIIIIIIAA2222222222222224II222222224222222AAA222222222222224244
IIIIIIIIAA2222222222222224II222222224222222AAI222222222222224244
IIIIIIIIAA2222222222222224II222222224222222AII222222222222224244
IIIIIIIIIA2222222222222224II222222224222222AII222222222222224244
IIIIIIIIII2222222222222224II222222224222222AII222222222222224244
IIIIIIIIII2222222222222224A4222222224222222AII222222222222224244
IIIIIIIIII2222222222222224AA222222224222222AII222222222222224244
IIIIIIIIII2222222222222224IA222222224222222AII222222222222224244
IIIIIIIIII2222222222222224II222222224222222AII222222222222224244
IIIIIIIIII2222222222222224II222222224222222AA2222222222222224244
IIIIIIIIII2222222222222224II222222224222222AAA222222222222224244
IIIIIIIIA42222222222222224II222222224222222AAA222222222222224244
IIIIIIIIAA2222222222222224II222222224222222AAA222222222222224244
IIIIIIIIAA2222222222222224A2222222224222222AAA222222222222224244
IIIIIIIIAA2222222222222224AA222222224222222AAA222222222222224244
IIIIIIIIAA2222222222222224AA222222224I22222AAA222222222222224244
IIIIIIIIAI2222222222222224AA222222224I22222AAA222222222222224244
IIIIIIIIAI2222222222222224AAI22222224I22222AAA222222222222224244
IIIIIIIIAI2222222222222224AAI2222I224I22222AAA222222222222224244
IIIIIIIIAI2222222222222224AAI2222II24I22222AAA222222222222224244
IIIIIIIIAI2222222222222224AAI2222II2II22222AAA222222222222224244
IIIIIIIIAI2222222222222224AAI2222II2III2222AAA222222222222224244
IIIIIIIIAI2222222222222224AAI22I2II2III2222AAA222222222222224244
IIIIIIIIII2222222222222224AAI22I2II2III2222AAA222222222222224244
IIIIIIIIII2222222222222224AAI2II2II2III2222AAA222222222222224244
IIIIIIIIII2222222222222224AAI2IIIII2III2222AAA222222222222224244
IIIIIIIIII2222222222222224AAI2IIIIIIIII2222AAA222222222222224244
IIIIIIIIII2222222222222224IAI2IIIIIIIII2222AAA222222222222224244
IIIIIIIIII2222222222222224IAIIIIIIIIIII2222AAA222222222222224244
IIIIIIIIII2222222222222224AAI44I4II44442222AAA222222222222224244
IIIIIIIIII2222222222222224AA444444I44442222AAA222222222222224244
IIIIIIIIA22222222222222224AA444444I44442222AAA222222222222224244
IIIIIIIIAA2222222222222224AA444444I44442222AAA222222222222224244
IIIIIIIIAI2222222222222224AA444444I44442222AAA222222222222224244
IIIIIIIIAI2222222222222224AA244444I44442222AAA222222222222224244
IIIIIIIIAI2222222222222224AAI44444I44442222AAA222222222222224244
IIIIIIIIA42222222222222224AAI44444I44442222AAA222222222222224244
IIIIIIIIAA2222222222222224AAI44444I44442222AAA222222222222224244
IIIIIIIIAA2222222222222224AAI44444444442222AAA222222222222224244
IIIIIIIIAA2222222222222224AA444444444442222AAA222222222222224244
IIIIIIIIAA2222222222222224IA444444444442222AAA222222222222224244
IIIIIIIIAA2222222222222224AA444444444442222AAA222222222222224244
IIIIIIIIAA2222222222222224AA244444444442222AAA222222222222224244
[MLOP] Prefetch Degree Mean: 13.81693
[MLOP] Prefetch Degree SD: 3.69003
[MLOP] Max Score Left Mean (%): 56.91666
[MLOP] Max Score Left SD (%): 20.68141
[MLOP] Max Score Right Mean (%): 87.43760
[MLOP] Max Score Right SD (%): 12.17887

[MLOP] History of tracked zone:
IIIIIIIIIIIIIIIIIIIIIIIIIIIIIIIIIIIIIIIIIIIIIIIIIIIIIIIIIIIIIIII
IIIIIIIIIIIIIIIIIIIIIIIIIIIIIIIIIIIIIIIIIIIIIIIIIIIIIIIIIIIA2224
IIIIIIIIIIIIIIIIIIIIIIIIIIIIIIIIIIIIIIIIIIIIIIIIIIIIIIIIIIIA2A22
IIIIIIIIIIIIIIIIIIIIIIIIIIIIIIIIIIIIIIIIIIIIIIIIIIIIIIIIIIII2A22
IIIIIIIIIIIIIIIIIIIIIIIIIIIIIIIIIIIIIIIIIIIIIIIIIIIIIIIIIIIIIA22
IIIIIIIIIIIIIIIIIIIIIIIIIIIIIIIIIIIIIIIIIIIIIIIIIIIIIIIIIIIIII22
IIIIIIIIIIIIIIIIIIIIIIIIIIIIIIIIIIIIIIIIIIIIIIIIIIIIIIIIIIIIIII2
IIIIIIIIIIIIIIIIIIIIIIIIIIIIIIIIIIIIIIIIIIIIIIIIIIIIIIIIIIIIIIII
[MLOP] Prefetch Degree Mean: 12.30627
[MLOP] Prefetch Degree SD: 3.50947
[MLOP] Max Score Left Mean (%): 46.49254
[MLOP] Max Score Left SD (%): 20.99377
[MLOP] Max Score Right Mean (%): 82.79893
[MLOP] Max Score Right SD (%): 12.53418

Channel_0_RQ_row_buffer_hit 968451
Channel_0_RQ_row_buffer_miss 1759296
Channel_0_WQ_row_buffer_hit 32088
Channel_0_WQ_row_buffer_miss 340011
Channel_0_WQ_full 0
Channel_0_dbus_congested 1331000

Channel_1_RQ_row_buffer_hit 969091
Channel_1_RQ_row_buffer_miss 1784134
Channel_1_WQ_row_buffer_hit 33022
Channel_1_WQ_row_buffer_miss 339703
Channel_1_WQ_full 0
Channel_1_dbus_congested 1337962

avg_congested_cycle 10

DRAM_bw_pochs 2670052
DRAM_bw_level_0 2270234
DRAM_bw_level_1 274362
DRAM_bw_level_2 76226
DRAM_bw_level_3 49230
