*************************************************
   ChampSim Multicore Out-of-Order Simulator
   Last compiled: Mar 31 2025 20:14:32
*************************************************
parsing config file: /data3/config/nopref.ini

trace_0 /data3/STREAMING/traces/streaming_phase1_core0.trace.xz
trace_1 /data3/STREAMING/traces/streaming_phase1_core1.trace.xz
trace_2 /data3/STREAMING/traces/streaming_phase1_core2.trace.xz
trace_3 /data3/STREAMING/traces/streaming_phase1_core3.trace.xz
adding L2C_PREFETCHER: NONE
adding L2C_PREFETCHER: NONE
adding L2C_PREFETCHER: NONE
adding L2C_PREFETCHER: NONE
Initialize SHIP state
warmup_instructions 50000000
simulation_instructions 150000000
champsim_seed 8850
measure_ipc 0
measure_ipc_epoch 1000
measure_dram_bw 1
measure_dram_bw_epoch 256
measure_cache_acc 1
measure_cache_acc_epoch 1024
l1d_perfect 0
l2c_perfect 0
llc_perfect 0
l1d_semi_perfect 0
l2c_semi_perfect 0
llc_semi_perfect 0
semi_perfect_cache_page_buffer_size 64

num_cpus 4
cpu_freq 4000
dram_io_freq 2400
page_size 4096
block_size 64
max_read_per_cycle 8
max_fill_per_cycle 1
dram_channels 2
log2_dram_channels 1
dram_ranks 1
dram_banks 8
dram_rows 65536
dram_columns 128
dram_row_size 8
dram_size 8192
dram_pages 2097152

fetch_width 6
decode_width 6
exec_width 4
lq_width 2
sq_width 2
retire_width 4
scheduler_size 128
branch_mispredict_penalty 20
rob_size 256
lq_size 72
sq_size 56
num_instr_destinations_sparc 4
num_instr_destinations 2
num_instr_sources 4

itlb_set 16
itlb_way 8
itlb_rq_size 16
itlb_wq_size 16
itlb_pq_size 0
itlb_mshr_size 8
itlb_latency 1

dtlb_set 16
dtlb_way 4
dtlb_rq_size 16
dtlb_wq_size 16
dtlb_pq_size 0
dtlb_mshr_size 8
dtlb_latency 1

stlb_set 128
stlb_way 12
stlb_rq_size 32
stlb_wq_size 32
stlb_pq_size 0
stlb_mshr_size 16
stlb_latency 8

l1i_size 32
l1i_set 64
l1i_way 8
l1i_rq_size 64
l1i_wq_size 64
l1i_pq_size 8
l1i_mshr_size 8
l1i_latency 1

l1d_size 32
l1d_set 64
l1d_way 8
l1d_rq_size 64
l1d_wq_size 64
l1d_pq_size 8
l1d_mshr_size 16
l1d_latency 4

l2c_size 256
l2c_set 512
l2c_way 8
l2c_rq_size 32
l2c_wq_size 32
l2c_pq_size 32
l2c_mshr_size 32
l2c_latency 10

llc_size 8192
llc_set 8192
llc_way 16
llc_rq_size 128
llc_wq_size 128
llc_pq_size 128
llc_mshr_size 256
llc_latency 20

dram_channel_width 8
dram_wq_size 64
dram_rq_size 64
tRP 15
tRCD 15
tCAS 12.5
dram_dbus_turn_around_time 30
dram_write_high_wm 56
dram_write_low_wm 48
min_dram_writes_per_switch 16
dram_mtps 2400
dram_dbus_return_time 13


Heartbeat CPU  2 instructions:    1000003 cycles:     310668 heartbeat IPC: 3.21888 cumulative IPC: 3.21888 (Simulation time: 0 hr 0 min 4 sec) 
Heartbeat CPU  1 instructions:    1000000 cycles:     579612 heartbeat IPC: 1.72529 cumulative IPC: 1.72529 (Simulation time: 0 hr 0 min 7 sec) 
Heartbeat CPU  3 instructions:    1000000 cycles:     601191 heartbeat IPC: 1.66336 cumulative IPC: 1.66336 (Simulation time: 0 hr 0 min 8 sec) 
Heartbeat CPU  0 instructions:    1000003 cycles:     602872 heartbeat IPC: 1.65873 cumulative IPC: 1.65873 (Simulation time: 0 hr 0 min 8 sec) 
Heartbeat CPU  2 instructions:    2000002 cycles:     628135 heartbeat IPC: 3.14993 cumulative IPC: 3.18403 (Simulation time: 0 hr 0 min 8 sec) 
Heartbeat CPU  2 instructions:    3000001 cycles:     932715 heartbeat IPC: 3.28321 cumulative IPC: 3.21642 (Simulation time: 0 hr 0 min 13 sec) 
Heartbeat CPU  1 instructions:    2000001 cycles:    1062607 heartbeat IPC: 2.07042 cumulative IPC: 1.88216 (Simulation time: 0 hr 0 min 15 sec) 
Heartbeat CPU  3 instructions:    2000000 cycles:    1096971 heartbeat IPC: 2.01702 cumulative IPC: 1.82320 (Simulation time: 0 hr 0 min 15 sec) 
Heartbeat CPU  0 instructions:    2000000 cycles:    1124681 heartbeat IPC: 1.91640 cumulative IPC: 1.77828 (Simulation time: 0 hr 0 min 15 sec) 
Heartbeat CPU  2 instructions:    4000000 cycles:    1235431 heartbeat IPC: 3.30342 cumulative IPC: 3.23774 (Simulation time: 0 hr 0 min 17 sec) 
Heartbeat CPU  1 instructions:    3000001 cycles:    1543335 heartbeat IPC: 2.08018 cumulative IPC: 1.94384 (Simulation time: 0 hr 0 min 22 sec) 
Heartbeat CPU  2 instructions:    5000000 cycles:    1545014 heartbeat IPC: 3.23015 cumulative IPC: 3.23622 (Simulation time: 0 hr 0 min 22 sec) 
Heartbeat CPU  0 instructions:    3000003 cycles:    1618398 heartbeat IPC: 2.02546 cumulative IPC: 1.85369 (Simulation time: 0 hr 0 min 23 sec) 
Heartbeat CPU  3 instructions:    3000003 cycles:    1618697 heartbeat IPC: 1.91672 cumulative IPC: 1.85334 (Simulation time: 0 hr 0 min 23 sec) 
Heartbeat CPU  2 instructions:    6000000 cycles:    1853906 heartbeat IPC: 3.23738 cumulative IPC: 3.23641 (Simulation time: 0 hr 0 min 27 sec) 
Heartbeat CPU  1 instructions:    4000000 cycles:    1991893 heartbeat IPC: 2.22936 cumulative IPC: 2.00814 (Simulation time: 0 hr 0 min 28 sec) 
Heartbeat CPU  0 instructions:    4000000 cycles:    2114315 heartbeat IPC: 2.01646 cumulative IPC: 1.89187 (Simulation time: 0 hr 0 min 30 sec) 
Heartbeat CPU  3 instructions:    4000000 cycles:    2117272 heartbeat IPC: 2.00571 cumulative IPC: 1.88922 (Simulation time: 0 hr 0 min 30 sec) 
Heartbeat CPU  1 instructions:    5000002 cycles:    2449413 heartbeat IPC: 2.18570 cumulative IPC: 2.04131 (Simulation time: 0 hr 0 min 34 sec) 
Heartbeat CPU  3 instructions:    5000000 cycles:    2604423 heartbeat IPC: 2.05275 cumulative IPC: 1.91981 (Simulation time: 0 hr 0 min 36 sec) 
Heartbeat CPU  2 instructions:    7000000 cycles:    2642436 heartbeat IPC: 1.26818 cumulative IPC: 2.64907 (Simulation time: 0 hr 0 min 36 sec) 
Heartbeat CPU  0 instructions:    5000002 cycles:    2674659 heartbeat IPC: 1.78462 cumulative IPC: 1.86940 (Simulation time: 0 hr 0 min 37 sec) 
Heartbeat CPU  1 instructions:    6000001 cycles:    2918413 heartbeat IPC: 2.13219 cumulative IPC: 2.05591 (Simulation time: 0 hr 0 min 40 sec) 
Heartbeat CPU  3 instructions:    6000000 cycles:    2980898 heartbeat IPC: 2.65622 cumulative IPC: 2.01282 (Simulation time: 0 hr 0 min 41 sec) 
Heartbeat CPU  0 instructions:    6000001 cycles:    3207648 heartbeat IPC: 1.87621 cumulative IPC: 1.87053 (Simulation time: 0 hr 0 min 43 sec) 
Heartbeat CPU  2 instructions:    8000000 cycles:    3301995 heartbeat IPC: 1.51616 cumulative IPC: 2.42278 (Simulation time: 0 hr 0 min 44 sec) 
Heartbeat CPU  1 instructions:    7000001 cycles:    3527757 heartbeat IPC: 1.64111 cumulative IPC: 1.98426 (Simulation time: 0 hr 0 min 46 sec) 
Heartbeat CPU  3 instructions:    7000000 cycles:    3552772 heartbeat IPC: 1.74864 cumulative IPC: 1.97029 (Simulation time: 0 hr 0 min 47 sec) 
Heartbeat CPU  0 instructions:    7000001 cycles:    3803011 heartbeat IPC: 1.67965 cumulative IPC: 1.84065 (Simulation time: 0 hr 0 min 49 sec) 
Heartbeat CPU  2 instructions:    9000001 cycles:    3930581 heartbeat IPC: 1.59087 cumulative IPC: 2.28974 (Simulation time: 0 hr 0 min 51 sec) 
Heartbeat CPU  3 instructions:    8000000 cycles:    4051695 heartbeat IPC: 2.00432 cumulative IPC: 1.97448 (Simulation time: 0 hr 0 min 52 sec) 
Heartbeat CPU  1 instructions:    8000000 cycles:    4077458 heartbeat IPC: 1.81917 cumulative IPC: 1.96201 (Simulation time: 0 hr 0 min 53 sec) 
Heartbeat CPU  0 instructions:    8000000 cycles:    4340462 heartbeat IPC: 1.86063 cumulative IPC: 1.84312 (Simulation time: 0 hr 0 min 56 sec) 
Heartbeat CPU  2 instructions:   10000001 cycles:    4542483 heartbeat IPC: 1.63425 cumulative IPC: 2.20144 (Simulation time: 0 hr 0 min 58 sec) 
Heartbeat CPU  3 instructions:    9000000 cycles:    4580452 heartbeat IPC: 1.89123 cumulative IPC: 1.96487 (Simulation time: 0 hr 0 min 59 sec) 
Heartbeat CPU  1 instructions:    9000002 cycles:    4610661 heartbeat IPC: 1.87546 cumulative IPC: 1.95200 (Simulation time: 0 hr 0 min 59 sec) 
Heartbeat CPU  0 instructions:    9000000 cycles:    4856762 heartbeat IPC: 1.93686 cumulative IPC: 1.85309 (Simulation time: 0 hr 1 min 2 sec) 
Heartbeat CPU  2 instructions:   11000002 cycles:    5052390 heartbeat IPC: 1.96114 cumulative IPC: 2.17719 (Simulation time: 0 hr 1 min 4 sec) 
Heartbeat CPU  3 instructions:   10000000 cycles:    5133898 heartbeat IPC: 1.80686 cumulative IPC: 1.94784 (Simulation time: 0 hr 1 min 5 sec) 
Heartbeat CPU  1 instructions:   10000002 cycles:    5188337 heartbeat IPC: 1.73107 cumulative IPC: 1.92740 (Simulation time: 0 hr 1 min 6 sec) 
Heartbeat CPU  2 instructions:   12000000 cycles:    5362584 heartbeat IPC: 3.22378 cumulative IPC: 2.23773 (Simulation time: 0 hr 1 min 8 sec) 
Heartbeat CPU  0 instructions:   10000003 cycles:    5393635 heartbeat IPC: 1.86264 cumulative IPC: 1.85404 (Simulation time: 0 hr 1 min 9 sec) 
Heartbeat CPU  3 instructions:   11000000 cycles:    5663031 heartbeat IPC: 1.88988 cumulative IPC: 1.94242 (Simulation time: 0 hr 1 min 13 sec) 
Heartbeat CPU  2 instructions:   13000001 cycles:    5668931 heartbeat IPC: 3.26428 cumulative IPC: 2.29320 (Simulation time: 0 hr 1 min 13 sec) 
Heartbeat CPU  1 instructions:   11000001 cycles:    5721713 heartbeat IPC: 1.87485 cumulative IPC: 1.92250 (Simulation time: 0 hr 1 min 13 sec) 
Heartbeat CPU  0 instructions:   11000002 cycles:    5933972 heartbeat IPC: 1.85070 cumulative IPC: 1.85373 (Simulation time: 0 hr 1 min 17 sec) 
Heartbeat CPU  2 instructions:   14000000 cycles:    5975611 heartbeat IPC: 3.26072 cumulative IPC: 2.34286 (Simulation time: 0 hr 1 min 17 sec) 
Heartbeat CPU  3 instructions:   12000000 cycles:    6151656 heartbeat IPC: 2.04656 cumulative IPC: 1.95069 (Simulation time: 0 hr 1 min 20 sec) 
Heartbeat CPU  1 instructions:   12000000 cycles:    6192038 heartbeat IPC: 2.12619 cumulative IPC: 1.93797 (Simulation time: 0 hr 1 min 21 sec) 
Heartbeat CPU  2 instructions:   15000003 cycles:    6281631 heartbeat IPC: 3.26777 cumulative IPC: 2.38792 (Simulation time: 0 hr 1 min 22 sec) 
Heartbeat CPU  0 instructions:   12000000 cycles:    6430519 heartbeat IPC: 2.01390 cumulative IPC: 1.86610 (Simulation time: 0 hr 1 min 24 sec) 
Heartbeat CPU  2 instructions:   16000000 cycles:    6582518 heartbeat IPC: 3.32350 cumulative IPC: 2.43068 (Simulation time: 0 hr 1 min 27 sec) 
Heartbeat CPU  3 instructions:   13000000 cycles:    6637294 heartbeat IPC: 2.05915 cumulative IPC: 1.95863 (Simulation time: 0 hr 1 min 27 sec) 
Heartbeat CPU  1 instructions:   13000002 cycles:    6671536 heartbeat IPC: 2.08552 cumulative IPC: 1.94858 (Simulation time: 0 hr 1 min 28 sec) 
Heartbeat CPU  2 instructions:   17000000 cycles:    6881578 heartbeat IPC: 3.34381 cumulative IPC: 2.47036 (Simulation time: 0 hr 1 min 31 sec) 
Heartbeat CPU  0 instructions:   13000001 cycles:    6925671 heartbeat IPC: 2.01958 cumulative IPC: 1.87707 (Simulation time: 0 hr 1 min 32 sec) 
Heartbeat CPU  3 instructions:   14000000 cycles:    7102189 heartbeat IPC: 2.15102 cumulative IPC: 1.97122 (Simulation time: 0 hr 1 min 35 sec) 
Heartbeat CPU  1 instructions:   14000000 cycles:    7123935 heartbeat IPC: 2.21043 cumulative IPC: 1.96521 (Simulation time: 0 hr 1 min 35 sec) 
Heartbeat CPU  2 instructions:   18000000 cycles:    7178631 heartbeat IPC: 3.36640 cumulative IPC: 2.50744 (Simulation time: 0 hr 1 min 36 sec) 
Heartbeat CPU  0 instructions:   14000002 cycles:    7402164 heartbeat IPC: 2.09867 cumulative IPC: 1.89134 (Simulation time: 0 hr 1 min 40 sec) 
Heartbeat CPU  2 instructions:   19000001 cycles:    7476684 heartbeat IPC: 3.35511 cumulative IPC: 2.54123 (Simulation time: 0 hr 1 min 41 sec) 
Heartbeat CPU  1 instructions:   15000001 cycles:    7594418 heartbeat IPC: 2.12548 cumulative IPC: 1.97513 (Simulation time: 0 hr 1 min 43 sec) 
Heartbeat CPU  3 instructions:   15000000 cycles:    7618009 heartbeat IPC: 1.93866 cumulative IPC: 1.96902 (Simulation time: 0 hr 1 min 43 sec) 
Heartbeat CPU  2 instructions:   20000000 cycles:    7774591 heartbeat IPC: 3.35675 cumulative IPC: 2.57248 (Simulation time: 0 hr 1 min 45 sec) 
Heartbeat CPU  0 instructions:   15000002 cycles:    7879831 heartbeat IPC: 2.09351 cumulative IPC: 1.90359 (Simulation time: 0 hr 1 min 47 sec) 
Heartbeat CPU  1 instructions:   16000000 cycles:    8069684 heartbeat IPC: 2.10408 cumulative IPC: 1.98273 (Simulation time: 0 hr 1 min 50 sec) 
Heartbeat CPU  2 instructions:   21000002 cycles:    8072729 heartbeat IPC: 3.35416 cumulative IPC: 2.60135 (Simulation time: 0 hr 1 min 50 sec) 
Heartbeat CPU  3 instructions:   16000000 cycles:    8099292 heartbeat IPC: 2.07778 cumulative IPC: 1.97548 (Simulation time: 0 hr 1 min 51 sec) 
Heartbeat CPU  0 instructions:   16000000 cycles:    8346020 heartbeat IPC: 2.14505 cumulative IPC: 1.91708 (Simulation time: 0 hr 1 min 55 sec) 
Heartbeat CPU  2 instructions:   22000000 cycles:    8388704 heartbeat IPC: 3.16480 cumulative IPC: 2.62257 (Simulation time: 0 hr 1 min 55 sec) 
Heartbeat CPU  1 instructions:   17000002 cycles:    8552334 heartbeat IPC: 2.07190 cumulative IPC: 1.98776 (Simulation time: 0 hr 1 min 58 sec) 
Heartbeat CPU  3 instructions:   17000000 cycles:    8578182 heartbeat IPC: 2.08816 cumulative IPC: 1.98177 (Simulation time: 0 hr 1 min 58 sec) 
Heartbeat CPU  2 instructions:   23000000 cycles:    8686689 heartbeat IPC: 3.35587 cumulative IPC: 2.64773 (Simulation time: 0 hr 2 min 0 sec) 
Heartbeat CPU  0 instructions:   17000000 cycles:    8839508 heartbeat IPC: 2.02639 cumulative IPC: 1.92318 (Simulation time: 0 hr 2 min 2 sec) 
Heartbeat CPU  2 instructions:   24000000 cycles:    8989120 heartbeat IPC: 3.30654 cumulative IPC: 2.66989 (Simulation time: 0 hr 2 min 4 sec) 
Heartbeat CPU  1 instructions:   18000002 cycles:    9070612 heartbeat IPC: 1.92947 cumulative IPC: 1.98443 (Simulation time: 0 hr 2 min 6 sec) 
Heartbeat CPU  3 instructions:   18000000 cycles:    9086924 heartbeat IPC: 1.96563 cumulative IPC: 1.98087 (Simulation time: 0 hr 2 min 6 sec) 
Heartbeat CPU  0 instructions:   18000002 cycles:    9289766 heartbeat IPC: 2.22095 cumulative IPC: 1.93762 (Simulation time: 0 hr 2 min 9 sec) 
Heartbeat CPU  2 instructions:   25000000 cycles:    9309322 heartbeat IPC: 3.12303 cumulative IPC: 2.68548 (Simulation time: 0 hr 2 min 9 sec) 
Heartbeat CPU  1 instructions:   19000000 cycles:    9579607 heartbeat IPC: 1.96465 cumulative IPC: 1.98338 (Simulation time: 0 hr 2 min 14 sec) 
Heartbeat CPU  3 instructions:   19000003 cycles:    9596693 heartbeat IPC: 1.96168 cumulative IPC: 1.97985 (Simulation time: 0 hr 2 min 14 sec) 
Heartbeat CPU  2 instructions:   26000001 cycles:    9604092 heartbeat IPC: 3.39248 cumulative IPC: 2.70718 (Simulation time: 0 hr 2 min 14 sec) 
Heartbeat CPU  0 instructions:   19000001 cycles:    9729294 heartbeat IPC: 2.27517 cumulative IPC: 1.95287 (Simulation time: 0 hr 2 min 16 sec) 
Heartbeat CPU  2 instructions:   27000003 cycles:    9901124 heartbeat IPC: 3.36665 cumulative IPC: 2.72696 (Simulation time: 0 hr 2 min 18 sec) 
Heartbeat CPU  1 instructions:   20000000 cycles:   10062795 heartbeat IPC: 2.06959 cumulative IPC: 1.98752 (Simulation time: 0 hr 2 min 21 sec) 
Heartbeat CPU  3 instructions:   20000000 cycles:   10100137 heartbeat IPC: 1.98631 cumulative IPC: 1.98017 (Simulation time: 0 hr 2 min 21 sec) 
Heartbeat CPU  2 instructions:   28000000 cycles:   10200345 heartbeat IPC: 3.34200 cumulative IPC: 2.74501 (Simulation time: 0 hr 2 min 23 sec) 
Heartbeat CPU  0 instructions:   20000000 cycles:   10242613 heartbeat IPC: 1.94810 cumulative IPC: 1.95263 (Simulation time: 0 hr 2 min 24 sec) 
Heartbeat CPU  2 instructions:   29000003 cycles:   10498407 heartbeat IPC: 3.35502 cumulative IPC: 2.76232 (Simulation time: 0 hr 2 min 28 sec) 
Heartbeat CPU  1 instructions:   21000001 cycles:   10560828 heartbeat IPC: 2.00790 cumulative IPC: 1.98848 (Simulation time: 0 hr 2 min 29 sec) 
Heartbeat CPU  3 instructions:   21000001 cycles:   10585008 heartbeat IPC: 2.06241 cumulative IPC: 1.98394 (Simulation time: 0 hr 2 min 29 sec) 
Heartbeat CPU  0 instructions:   21000001 cycles:   10736551 heartbeat IPC: 2.02455 cumulative IPC: 1.95594 (Simulation time: 0 hr 2 min 31 sec) 
Heartbeat CPU  2 instructions:   30000000 cycles:   10792669 heartbeat IPC: 3.39832 cumulative IPC: 2.77966 (Simulation time: 0 hr 2 min 32 sec) 
Heartbeat CPU  1 instructions:   22000000 cycles:   11036158 heartbeat IPC: 2.10380 cumulative IPC: 1.99345 (Simulation time: 0 hr 2 min 36 sec) 
Heartbeat CPU  3 instructions:   22000002 cycles:   11077060 heartbeat IPC: 2.03231 cumulative IPC: 1.98609 (Simulation time: 0 hr 2 min 37 sec) 
Heartbeat CPU  2 instructions:   31000001 cycles:   11090330 heartbeat IPC: 3.35953 cumulative IPC: 2.79523 (Simulation time: 0 hr 2 min 37 sec) 
Heartbeat CPU  0 instructions:   22000000 cycles:   11219610 heartbeat IPC: 2.07014 cumulative IPC: 1.96085 (Simulation time: 0 hr 2 min 39 sec) 
Heartbeat CPU  2 instructions:   32000000 cycles:   11388664 heartbeat IPC: 3.35194 cumulative IPC: 2.80981 (Simulation time: 0 hr 2 min 42 sec) 
Heartbeat CPU  1 instructions:   23000002 cycles:   11500894 heartbeat IPC: 2.15176 cumulative IPC: 1.99984 (Simulation time: 0 hr 2 min 43 sec) 
Heartbeat CPU  3 instructions:   23000002 cycles:   11573209 heartbeat IPC: 2.01552 cumulative IPC: 1.98735 (Simulation time: 0 hr 2 min 45 sec) 
Heartbeat CPU  0 instructions:   23000000 cycles:   11679038 heartbeat IPC: 2.17662 cumulative IPC: 1.96934 (Simulation time: 0 hr 2 min 46 sec) 
Heartbeat CPU  2 instructions:   33000001 cycles:   11686935 heartbeat IPC: 3.35266 cumulative IPC: 2.82367 (Simulation time: 0 hr 2 min 46 sec) 
Heartbeat CPU  1 instructions:   24000000 cycles:   11981138 heartbeat IPC: 2.08227 cumulative IPC: 2.00315 (Simulation time: 0 hr 2 min 51 sec) 
Heartbeat CPU  2 instructions:   34000002 cycles:   11989114 heartbeat IPC: 3.30930 cumulative IPC: 2.83591 (Simulation time: 0 hr 2 min 51 sec) 
Heartbeat CPU  3 instructions:   24000000 cycles:   12031444 heartbeat IPC: 2.18228 cumulative IPC: 1.99477 (Simulation time: 0 hr 2 min 52 sec) 
Heartbeat CPU  0 instructions:   24000000 cycles:   12138977 heartbeat IPC: 2.17420 cumulative IPC: 1.97710 (Simulation time: 0 hr 2 min 54 sec) 
Heartbeat CPU  2 instructions:   35000002 cycles:   12283969 heartbeat IPC: 3.39150 cumulative IPC: 2.84924 (Simulation time: 0 hr 2 min 56 sec) 
Heartbeat CPU  1 instructions:   25000003 cycles:   12456572 heartbeat IPC: 2.10335 cumulative IPC: 2.00697 (Simulation time: 0 hr 2 min 59 sec) 
Heartbeat CPU  3 instructions:   25000000 cycles:   12496407 heartbeat IPC: 2.15071 cumulative IPC: 2.00058 (Simulation time: 0 hr 3 min 0 sec) 
Heartbeat CPU  2 instructions:   36000000 cycles:   12587112 heartbeat IPC: 3.29877 cumulative IPC: 2.86007 (Simulation time: 0 hr 3 min 1 sec) 
Heartbeat CPU  0 instructions:   25000003 cycles:   12611766 heartbeat IPC: 2.11511 cumulative IPC: 1.98228 (Simulation time: 0 hr 3 min 1 sec) 
Heartbeat CPU  1 instructions:   26000000 cycles:   12936603 heartbeat IPC: 2.08319 cumulative IPC: 2.00980 (Simulation time: 0 hr 3 min 6 sec) 
Heartbeat CPU  3 instructions:   26000003 cycles:   12985303 heartbeat IPC: 2.04543 cumulative IPC: 2.00226 (Simulation time: 0 hr 3 min 7 sec) 
Heartbeat CPU  2 instructions:   37000001 cycles:   13090310 heartbeat IPC: 1.98729 cumulative IPC: 2.82652 (Simulation time: 0 hr 3 min 8 sec) 
Heartbeat CPU  0 instructions:   26000000 cycles:   13093480 heartbeat IPC: 2.07591 cumulative IPC: 1.98572 (Simulation time: 0 hr 3 min 8 sec) 
Heartbeat CPU  1 instructions:   27000001 cycles:   13406990 heartbeat IPC: 2.12591 cumulative IPC: 2.01388 (Simulation time: 0 hr 3 min 12 sec) 
Heartbeat CPU  3 instructions:   27000001 cycles:   13486511 heartbeat IPC: 1.99518 cumulative IPC: 2.00200 (Simulation time: 0 hr 3 min 13 sec) 
Heartbeat CPU  0 instructions:   27000003 cycles:   13589988 heartbeat IPC: 2.01407 cumulative IPC: 1.98676 (Simulation time: 0 hr 3 min 14 sec) 
Heartbeat CPU  2 instructions:   38000003 cycles:   13683353 heartbeat IPC: 1.68622 cumulative IPC: 2.77710 (Simulation time: 0 hr 3 min 15 sec) 
Heartbeat CPU  1 instructions:   28000000 cycles:   13896262 heartbeat IPC: 2.04385 cumulative IPC: 2.01493 (Simulation time: 0 hr 3 min 18 sec) 
Heartbeat CPU  3 instructions:   28000000 cycles:   13981403 heartbeat IPC: 2.02064 cumulative IPC: 2.00266 (Simulation time: 0 hr 3 min 19 sec) 
Heartbeat CPU  0 instructions:   28000000 cycles:   14073495 heartbeat IPC: 2.06822 cumulative IPC: 1.98956 (Simulation time: 0 hr 3 min 21 sec) 
Heartbeat CPU  2 instructions:   39000002 cycles:   14213996 heartbeat IPC: 1.88450 cumulative IPC: 2.74377 (Simulation time: 0 hr 3 min 23 sec) 
Heartbeat CPU  1 instructions:   29000000 cycles:   14387446 heartbeat IPC: 2.03590 cumulative IPC: 2.01565 (Simulation time: 0 hr 3 min 25 sec) 
Heartbeat CPU  3 instructions:   29000000 cycles:   14483621 heartbeat IPC: 1.99117 cumulative IPC: 2.00226 (Simulation time: 0 hr 3 min 26 sec) 
Heartbeat CPU  0 instructions:   29000001 cycles:   14542156 heartbeat IPC: 2.13374 cumulative IPC: 1.99420 (Simulation time: 0 hr 3 min 27 sec) 
Heartbeat CPU  2 instructions:   40000000 cycles:   14738289 heartbeat IPC: 1.90733 cumulative IPC: 2.71402 (Simulation time: 0 hr 3 min 30 sec) 
Heartbeat CPU  1 instructions:   30000001 cycles:   14880772 heartbeat IPC: 2.02706 cumulative IPC: 2.01602 (Simulation time: 0 hr 3 min 32 sec) 
Heartbeat CPU  3 instructions:   30000001 cycles:   14952782 heartbeat IPC: 2.13147 cumulative IPC: 2.00632 (Simulation time: 0 hr 3 min 33 sec) 
Heartbeat CPU  0 instructions:   30000001 cycles:   15029468 heartbeat IPC: 2.05207 cumulative IPC: 1.99608 (Simulation time: 0 hr 3 min 34 sec) 
Heartbeat CPU  2 instructions:   41000001 cycles:   15325503 heartbeat IPC: 1.70296 cumulative IPC: 2.67528 (Simulation time: 0 hr 3 min 38 sec) 
Heartbeat CPU  1 instructions:   31000002 cycles:   15343600 heartbeat IPC: 2.16063 cumulative IPC: 2.02039 (Simulation time: 0 hr 3 min 38 sec) 
Heartbeat CPU  3 instructions:   31000001 cycles:   15403458 heartbeat IPC: 2.21889 cumulative IPC: 2.01254 (Simulation time: 0 hr 3 min 39 sec) 
Heartbeat CPU  0 instructions:   31000000 cycles:   15512947 heartbeat IPC: 2.06834 cumulative IPC: 1.99833 (Simulation time: 0 hr 3 min 40 sec) 
Heartbeat CPU  1 instructions:   32000000 cycles:   15829581 heartbeat IPC: 2.05769 cumulative IPC: 2.02153 (Simulation time: 0 hr 3 min 45 sec) 
Heartbeat CPU  3 instructions:   32000000 cycles:   15849399 heartbeat IPC: 2.24245 cumulative IPC: 2.01900 (Simulation time: 0 hr 3 min 45 sec) 
Heartbeat CPU  2 instructions:   42000000 cycles:   15902633 heartbeat IPC: 1.73271 cumulative IPC: 2.64107 (Simulation time: 0 hr 3 min 45 sec) 
Heartbeat CPU  0 instructions:   32000000 cycles:   15989256 heartbeat IPC: 2.09948 cumulative IPC: 2.00134 (Simulation time: 0 hr 3 min 47 sec) 
Heartbeat CPU  3 instructions:   33000003 cycles:   16299837 heartbeat IPC: 2.22007 cumulative IPC: 2.02456 (Simulation time: 0 hr 3 min 51 sec) 
Heartbeat CPU  1 instructions:   33000000 cycles:   16348789 heartbeat IPC: 1.92601 cumulative IPC: 2.01850 (Simulation time: 0 hr 3 min 51 sec) 
Heartbeat CPU  0 instructions:   33000000 cycles:   16472043 heartbeat IPC: 2.07131 cumulative IPC: 2.00339 (Simulation time: 0 hr 3 min 53 sec) 
Heartbeat CPU  2 instructions:   43000001 cycles:   16482333 heartbeat IPC: 1.72503 cumulative IPC: 2.60885 (Simulation time: 0 hr 3 min 53 sec) 
Heartbeat CPU  3 instructions:   34000003 cycles:   16786885 heartbeat IPC: 2.05319 cumulative IPC: 2.02539 (Simulation time: 0 hr 3 min 57 sec) 
Heartbeat CPU  1 instructions:   34000001 cycles:   16816413 heartbeat IPC: 2.13847 cumulative IPC: 2.02183 (Simulation time: 0 hr 3 min 58 sec) 
Heartbeat CPU  0 instructions:   34000003 cycles:   16974074 heartbeat IPC: 1.99191 cumulative IPC: 2.00305 (Simulation time: 0 hr 4 min 0 sec) 
Heartbeat CPU  2 instructions:   44000000 cycles:   17104163 heartbeat IPC: 1.60816 cumulative IPC: 2.57247 (Simulation time: 0 hr 4 min 1 sec) 
Heartbeat CPU  3 instructions:   35000003 cycles:   17264114 heartbeat IPC: 2.09543 cumulative IPC: 2.02733 (Simulation time: 0 hr 4 min 3 sec) 
Heartbeat CPU  1 instructions:   35000000 cycles:   17301567 heartbeat IPC: 2.06120 cumulative IPC: 2.02294 (Simulation time: 0 hr 4 min 4 sec) 
Heartbeat CPU  0 instructions:   35000000 cycles:   17451278 heartbeat IPC: 2.09553 cumulative IPC: 2.00558 (Simulation time: 0 hr 4 min 6 sec) 
Heartbeat CPU  2 instructions:   45000003 cycles:   17688622 heartbeat IPC: 1.71099 cumulative IPC: 2.54401 (Simulation time: 0 hr 4 min 9 sec) 
Heartbeat CPU  3 instructions:   36000000 cycles:   17737363 heartbeat IPC: 2.11305 cumulative IPC: 2.02961 (Simulation time: 0 hr 4 min 10 sec) 
Heartbeat CPU  1 instructions:   36000000 cycles:   17782435 heartbeat IPC: 2.07957 cumulative IPC: 2.02447 (Simulation time: 0 hr 4 min 11 sec) 
Heartbeat CPU  0 instructions:   36000000 cycles:   17914892 heartbeat IPC: 2.15697 cumulative IPC: 2.00950 (Simulation time: 0 hr 4 min 12 sec) 
Heartbeat CPU  3 instructions:   37000001 cycles:   18221359 heartbeat IPC: 2.06613 cumulative IPC: 2.03058 (Simulation time: 0 hr 4 min 16 sec) 
Heartbeat CPU  2 instructions:   46000001 cycles:   18269399 heartbeat IPC: 1.72183 cumulative IPC: 2.51787 (Simulation time: 0 hr 4 min 17 sec) 
Heartbeat CPU  1 instructions:   37000001 cycles:   18271348 heartbeat IPC: 2.04536 cumulative IPC: 2.02503 (Simulation time: 0 hr 4 min 17 sec) 
Heartbeat CPU  0 instructions:   37000003 cycles:   18416473 heartbeat IPC: 1.99370 cumulative IPC: 2.00907 (Simulation time: 0 hr 4 min 19 sec) 
Heartbeat CPU  3 instructions:   38000000 cycles:   18747576 heartbeat IPC: 1.90035 cumulative IPC: 2.02693 (Simulation time: 0 hr 4 min 23 sec) 
Heartbeat CPU  1 instructions:   38000000 cycles:   18805282 heartbeat IPC: 1.87289 cumulative IPC: 2.02071 (Simulation time: 0 hr 4 min 23 sec) 
Heartbeat CPU  2 instructions:   47000001 cycles:   18836345 heartbeat IPC: 1.76384 cumulative IPC: 2.49518 (Simulation time: 0 hr 4 min 24 sec) 
Heartbeat CPU  0 instructions:   38000002 cycles:   18933865 heartbeat IPC: 1.93277 cumulative IPC: 2.00699 (Simulation time: 0 hr 4 min 25 sec) 
Heartbeat CPU  3 instructions:   39000003 cycles:   19288671 heartbeat IPC: 1.84811 cumulative IPC: 2.02191 (Simulation time: 0 hr 4 min 29 sec) 
Heartbeat CPU  1 instructions:   39000003 cycles:   19321666 heartbeat IPC: 1.93655 cumulative IPC: 2.01846 (Simulation time: 0 hr 4 min 30 sec) 
Heartbeat CPU  2 instructions:   48000000 cycles:   19402239 heartbeat IPC: 1.76711 cumulative IPC: 2.47394 (Simulation time: 0 hr 4 min 31 sec) 
Heartbeat CPU  0 instructions:   39000003 cycles:   19458003 heartbeat IPC: 1.90790 cumulative IPC: 2.00432 (Simulation time: 0 hr 4 min 31 sec) 
Heartbeat CPU  1 instructions:   40000000 cycles:   19852917 heartbeat IPC: 1.88234 cumulative IPC: 2.01482 (Simulation time: 0 hr 4 min 36 sec) 
Heartbeat CPU  3 instructions:   40000000 cycles:   19963266 heartbeat IPC: 1.48237 cumulative IPC: 2.00368 (Simulation time: 0 hr 4 min 37 sec) 
Heartbeat CPU  0 instructions:   40000000 cycles:   19979558 heartbeat IPC: 1.91734 cumulative IPC: 2.00205 (Simulation time: 0 hr 4 min 37 sec) 
Heartbeat CPU  2 instructions:   49000001 cycles:   19979684 heartbeat IPC: 1.73177 cumulative IPC: 2.45249 (Simulation time: 0 hr 4 min 37 sec) 
Heartbeat CPU  1 instructions:   41000000 cycles:   20468928 heartbeat IPC: 1.62335 cumulative IPC: 2.00304 (Simulation time: 0 hr 4 min 42 sec) 
Heartbeat CPU  0 instructions:   41000002 cycles:   20501969 heartbeat IPC: 1.91421 cumulative IPC: 1.99981 (Simulation time: 0 hr 4 min 43 sec) 
Heartbeat CPU  2 instructions:   50000003 cycles:   20553846 heartbeat IPC: 1.74167 cumulative IPC: 2.43263 (Simulation time: 0 hr 4 min 43 sec) 
Heartbeat CPU  3 instructions:   41000000 cycles:   20608538 heartbeat IPC: 1.54973 cumulative IPC: 1.98947 (Simulation time: 0 hr 4 min 44 sec) 
Heartbeat CPU  1 instructions:   42000002 cycles:   20995289 heartbeat IPC: 1.89984 cumulative IPC: 2.00045 (Simulation time: 0 hr 4 min 49 sec) 
Heartbeat CPU  0 instructions:   42000001 cycles:   21027024 heartbeat IPC: 1.90456 cumulative IPC: 1.99743 (Simulation time: 0 hr 4 min 49 sec) 
Heartbeat CPU  2 instructions:   51000000 cycles:   21112104 heartbeat IPC: 1.79128 cumulative IPC: 0.04737 (Simulation time: 0 hr 4 min 50 sec) 
Heartbeat CPU  3 instructions:   42000003 cycles:   21214674 heartbeat IPC: 1.64980 cumulative IPC: 1.97976 (Simulation time: 0 hr 4 min 51 sec) 
Heartbeat CPU  1 instructions:   43000000 cycles:   21537020 heartbeat IPC: 1.84593 cumulative IPC: 1.99656 (Simulation time: 0 hr 4 min 54 sec) 
Heartbeat CPU  2 instructions:   52000000 cycles:   21668338 heartbeat IPC: 1.79780 cumulative IPC: 0.09230 (Simulation time: 0 hr 4 min 56 sec) 
Heartbeat CPU  0 instructions:   43000003 cycles:   21682520 heartbeat IPC: 1.52557 cumulative IPC: 1.98316 (Simulation time: 0 hr 4 min 56 sec) 
Heartbeat CPU  3 instructions:   43000002 cycles:   21766425 heartbeat IPC: 1.81241 cumulative IPC: 1.97552 (Simulation time: 0 hr 4 min 57 sec) 
Heartbeat CPU  1 instructions:   44000000 cycles:   22092879 heartbeat IPC: 1.79902 cumulative IPC: 1.99159 (Simulation time: 0 hr 5 min 1 sec) 
Heartbeat CPU  0 instructions:   44000000 cycles:   22205240 heartbeat IPC: 1.91306 cumulative IPC: 1.98151 (Simulation time: 0 hr 5 min 2 sec) 
Heartbeat CPU  2 instructions:   53000001 cycles:   22234724 heartbeat IPC: 1.76558 cumulative IPC: 0.13492 (Simulation time: 0 hr 5 min 3 sec) 
Heartbeat CPU  3 instructions:   44000000 cycles:   22309604 heartbeat IPC: 1.84101 cumulative IPC: 1.97224 (Simulation time: 0 hr 5 min 3 sec) 
Heartbeat CPU  1 instructions:   45000000 cycles:   22649671 heartbeat IPC: 1.79600 cumulative IPC: 1.98678 (Simulation time: 0 hr 5 min 7 sec) 
Heartbeat CPU  2 instructions:   54000000 cycles:   22790277 heartbeat IPC: 1.80001 cumulative IPC: 0.17551 (Simulation time: 0 hr 5 min 9 sec) 
Heartbeat CPU  3 instructions:   45000001 cycles:   22834183 heartbeat IPC: 1.90629 cumulative IPC: 1.97073 (Simulation time: 0 hr 5 min 9 sec) 
Heartbeat CPU  0 instructions:   45000000 cycles:   22886784 heartbeat IPC: 1.46726 cumulative IPC: 1.96620 (Simulation time: 0 hr 5 min 10 sec) 
Heartbeat CPU  1 instructions:   46000002 cycles:   23161984 heartbeat IPC: 1.95194 cumulative IPC: 1.98601 (Simulation time: 0 hr 5 min 13 sec) 
Heartbeat CPU  3 instructions:   46000000 cycles:   23350407 heartbeat IPC: 1.93714 cumulative IPC: 1.96999 (Simulation time: 0 hr 5 min 15 sec) 
Heartbeat CPU  2 instructions:   55000002 cycles:   23364431 heartbeat IPC: 1.74170 cumulative IPC: 0.21400 (Simulation time: 0 hr 5 min 15 sec) 
Heartbeat CPU  0 instructions:   46000000 cycles:   23501025 heartbeat IPC: 1.62803 cumulative IPC: 1.95736 (Simulation time: 0 hr 5 min 17 sec) 
Heartbeat CPU  1 instructions:   47000001 cycles:   23675937 heartbeat IPC: 1.94570 cumulative IPC: 1.98514 (Simulation time: 0 hr 5 min 19 sec) 
Heartbeat CPU  3 instructions:   47000002 cycles:   23896994 heartbeat IPC: 1.82954 cumulative IPC: 1.96677 (Simulation time: 0 hr 5 min 22 sec) 
Heartbeat CPU  2 instructions:   56000000 cycles:   23899217 heartbeat IPC: 1.86990 cumulative IPC: 0.25105 (Simulation time: 0 hr 5 min 22 sec) 
Heartbeat CPU  0 instructions:   47000000 cycles:   24008784 heartbeat IPC: 1.96944 cumulative IPC: 1.95762 (Simulation time: 0 hr 5 min 23 sec) 
Heartbeat CPU  1 instructions:   48000000 cycles:   24182397 heartbeat IPC: 1.97449 cumulative IPC: 1.98491 (Simulation time: 0 hr 5 min 26 sec) 
Heartbeat CPU  2 instructions:   57000001 cycles:   24212555 heartbeat IPC: 3.19145 cumulative IPC: 0.28911 (Simulation time: 0 hr 5 min 26 sec) 
Heartbeat CPU  3 instructions:   48000000 cycles:   24432384 heartbeat IPC: 1.86779 cumulative IPC: 1.96461 (Simulation time: 0 hr 5 min 29 sec) 
Heartbeat CPU  0 instructions:   48000000 cycles:   24533933 heartbeat IPC: 1.90422 cumulative IPC: 1.95647 (Simulation time: 0 hr 5 min 30 sec) 
Heartbeat CPU  2 instructions:   58000001 cycles:   24582469 heartbeat IPC: 2.70333 cumulative IPC: 0.32544 (Simulation time: 0 hr 5 min 31 sec) 
Heartbeat CPU  1 instructions:   49000001 cycles:   24701499 heartbeat IPC: 1.92641 cumulative IPC: 1.98369 (Simulation time: 0 hr 5 min 32 sec) 
Heartbeat CPU  3 instructions:   49000003 cycles:   24972965 heartbeat IPC: 1.84987 cumulative IPC: 1.96212 (Simulation time: 0 hr 5 min 36 sec) 
Heartbeat CPU  0 instructions:   49000003 cycles:   25048604 heartbeat IPC: 1.94299 cumulative IPC: 1.95620 (Simulation time: 0 hr 5 min 36 sec) 
Heartbeat CPU  2 instructions:   59000002 cycles:   25160073 heartbeat IPC: 1.73129 cumulative IPC: 0.35771 (Simulation time: 0 hr 5 min 38 sec) 
Heartbeat CPU  1 instructions:   50000000 cycles:   25241162 heartbeat IPC: 1.85301 cumulative IPC: 1.98089 (Simulation time: 0 hr 5 min 39 sec) 
Heartbeat CPU  3 instructions:   50000000 cycles:   25517628 heartbeat IPC: 1.83599 cumulative IPC: 1.95943 (Simulation time: 0 hr 5 min 42 sec) 
Heartbeat CPU  0 instructions:   50000003 cycles:   25588650 heartbeat IPC: 1.85169 cumulative IPC: 1.95399 (Simulation time: 0 hr 5 min 43 sec) 

Warmup complete CPU  0 instructions:   50000003 cycles:   25588650 (Simulation time: 0 hr 5 min 43 sec) 
Warmup complete CPU  1 instructions:   50612049 cycles:   25588649 (Simulation time: 0 hr 5 min 43 sec) 
Warmup complete CPU  2 instructions:   59780296 cycles:   25588650 (Simulation time: 0 hr 5 min 43 sec) 
Warmup complete CPU  3 instructions:   50147343 cycles:   25588650 (Simulation time: 0 hr 5 min 43 sec) 

Heartbeat CPU  2 instructions:   60000000 cycles:   26869287 heartbeat IPC: 0.58506 cumulative IPC: 0.17156 (Simulation time: 0 hr 5 min 45 sec) 
Heartbeat CPU  1 instructions:   51000000 cycles:   27406871 heartbeat IPC: 0.46174 cumulative IPC: 0.21337 (Simulation time: 0 hr 5 min 46 sec) 
Heartbeat CPU  3 instructions:   51000000 cycles:   29662863 heartbeat IPC: 0.24124 cumulative IPC: 0.20928 (Simulation time: 0 hr 5 min 50 sec) 
Heartbeat CPU  0 instructions:   51000001 cycles:   30372246 heartbeat IPC: 0.20905 cumulative IPC: 0.20905 (Simulation time: 0 hr 5 min 51 sec) 
Heartbeat CPU  1 instructions:   52000000 cycles:   32210683 heartbeat IPC: 0.20817 cumulative IPC: 0.20960 (Simulation time: 0 hr 5 min 55 sec) 
Heartbeat CPU  2 instructions:   61000000 cycles:   32623652 heartbeat IPC: 0.17378 cumulative IPC: 0.17338 (Simulation time: 0 hr 5 min 56 sec) 
Heartbeat CPU  3 instructions:   52000000 cycles:   34523909 heartbeat IPC: 0.20572 cumulative IPC: 0.20734 (Simulation time: 0 hr 5 min 59 sec) 
Heartbeat CPU  0 instructions:   52000000 cycles:   35093803 heartbeat IPC: 0.21179 cumulative IPC: 0.21041 (Simulation time: 0 hr 6 min 0 sec) 
Heartbeat CPU  2 instructions:   62000002 cycles:   36432556 heartbeat IPC: 0.26254 cumulative IPC: 0.20470 (Simulation time: 0 hr 6 min 3 sec) 
Heartbeat CPU  1 instructions:   53000002 cycles:   36967833 heartbeat IPC: 0.21021 cumulative IPC: 0.20985 (Simulation time: 0 hr 6 min 4 sec) 
Heartbeat CPU  2 instructions:   63000003 cycles:   38709662 heartbeat IPC: 0.43915 cumulative IPC: 0.24539 (Simulation time: 0 hr 6 min 8 sec) 
Heartbeat CPU  3 instructions:   53000003 cycles:   39324558 heartbeat IPC: 0.20831 cumulative IPC: 0.20768 (Simulation time: 0 hr 6 min 10 sec) 
Heartbeat CPU  0 instructions:   53000001 cycles:   39881477 heartbeat IPC: 0.20887 cumulative IPC: 0.20990 (Simulation time: 0 hr 6 min 11 sec) 
Heartbeat CPU  2 instructions:   64000000 cycles:   40883764 heartbeat IPC: 0.45996 cumulative IPC: 0.27589 (Simulation time: 0 hr 6 min 13 sec) 
Heartbeat CPU  1 instructions:   54000002 cycles:   41712102 heartbeat IPC: 0.21078 cumulative IPC: 0.21013 (Simulation time: 0 hr 6 min 15 sec) 
Heartbeat CPU  2 instructions:   65000003 cycles:   43286151 heartbeat IPC: 0.41625 cumulative IPC: 0.29494 (Simulation time: 0 hr 6 min 19 sec) 
Heartbeat CPU  3 instructions:   54000000 cycles:   44105732 heartbeat IPC: 0.20915 cumulative IPC: 0.20806 (Simulation time: 0 hr 6 min 21 sec) 
Heartbeat CPU  0 instructions:   54000001 cycles:   44595796 heartbeat IPC: 0.21212 cumulative IPC: 0.21045 (Simulation time: 0 hr 6 min 22 sec) 
Heartbeat CPU  2 instructions:   66000001 cycles:   45328431 heartbeat IPC: 0.48965 cumulative IPC: 0.31508 (Simulation time: 0 hr 6 min 24 sec) 
Heartbeat CPU  1 instructions:   55000002 cycles:   46480217 heartbeat IPC: 0.20973 cumulative IPC: 0.21003 (Simulation time: 0 hr 6 min 26 sec) 
Heartbeat CPU  2 instructions:   67000002 cycles:   47162193 heartbeat IPC: 0.54533 cumulative IPC: 0.33466 (Simulation time: 0 hr 6 min 28 sec) 
Heartbeat CPU  3 instructions:   55000001 cycles:   48897501 heartbeat IPC: 0.20869 cumulative IPC: 0.20819 (Simulation time: 0 hr 6 min 32 sec) 
Heartbeat CPU  2 instructions:   68000000 cycles:   48992954 heartbeat IPC: 0.54622 cumulative IPC: 0.35120 (Simulation time: 0 hr 6 min 33 sec) 
Heartbeat CPU  0 instructions:   55000000 cycles:   49276306 heartbeat IPC: 0.21365 cumulative IPC: 0.21108 (Simulation time: 0 hr 6 min 33 sec) 
Heartbeat CPU  2 instructions:   69000000 cycles:   51121218 heartbeat IPC: 0.46987 cumulative IPC: 0.36110 (Simulation time: 0 hr 6 min 37 sec) 
Heartbeat CPU  1 instructions:   56000000 cycles:   51290935 heartbeat IPC: 0.20787 cumulative IPC: 0.20963 (Simulation time: 0 hr 6 min 38 sec) 
Heartbeat CPU  2 instructions:   70000001 cycles:   53531881 heartbeat IPC: 0.41482 cumulative IPC: 0.36573 (Simulation time: 0 hr 6 min 43 sec) 
Heartbeat CPU  3 instructions:   56000000 cycles:   53622571 heartbeat IPC: 0.21164 cumulative IPC: 0.20877 (Simulation time: 0 hr 6 min 43 sec) 
Heartbeat CPU  0 instructions:   56000000 cycles:   54034640 heartbeat IPC: 0.21016 cumulative IPC: 0.21093 (Simulation time: 0 hr 6 min 44 sec) 
Heartbeat CPU  1 instructions:   57000001 cycles:   56015290 heartbeat IPC: 0.21167 cumulative IPC: 0.20995 (Simulation time: 0 hr 6 min 48 sec) 
Heartbeat CPU  2 instructions:   71000002 cycles:   56156671 heartbeat IPC: 0.38098 cumulative IPC: 0.36704 (Simulation time: 0 hr 6 min 49 sec) 
Heartbeat CPU  3 instructions:   57000000 cycles:   58156948 heartbeat IPC: 0.22054 cumulative IPC: 0.21041 (Simulation time: 0 hr 6 min 53 sec) 
Heartbeat CPU  2 instructions:   72000000 cycles:   58711580 heartbeat IPC: 0.39140 cumulative IPC: 0.36892 (Simulation time: 0 hr 6 min 54 sec) 
Heartbeat CPU  0 instructions:   57000001 cycles:   58750352 heartbeat IPC: 0.21206 cumulative IPC: 0.21109 (Simulation time: 0 hr 6 min 54 sec) 
Heartbeat CPU  1 instructions:   58000001 cycles:   60714493 heartbeat IPC: 0.21280 cumulative IPC: 0.21033 (Simulation time: 0 hr 6 min 59 sec) 
Heartbeat CPU  2 instructions:   73000002 cycles:   61317700 heartbeat IPC: 0.38371 cumulative IPC: 0.37000 (Simulation time: 0 hr 7 min 0 sec) 
Heartbeat CPU  3 instructions:   58000001 cycles:   62820101 heartbeat IPC: 0.21445 cumulative IPC: 0.21091 (Simulation time: 0 hr 7 min 4 sec) 
Heartbeat CPU  0 instructions:   58000003 cycles:   63397461 heartbeat IPC: 0.21519 cumulative IPC: 0.21159 (Simulation time: 0 hr 7 min 5 sec) 
Heartbeat CPU  2 instructions:   74000000 cycles:   63634204 heartbeat IPC: 0.43168 cumulative IPC: 0.37375 (Simulation time: 0 hr 7 min 5 sec) 
Heartbeat CPU  1 instructions:   59000002 cycles:   65372325 heartbeat IPC: 0.21469 cumulative IPC: 0.21084 (Simulation time: 0 hr 7 min 9 sec) 
Heartbeat CPU  2 instructions:   75000001 cycles:   66307645 heartbeat IPC: 0.37405 cumulative IPC: 0.37377 (Simulation time: 0 hr 7 min 11 sec) 
Heartbeat CPU  3 instructions:   59000003 cycles:   67619898 heartbeat IPC: 0.20834 cumulative IPC: 0.21062 (Simulation time: 0 hr 7 min 14 sec) 
Heartbeat CPU  0 instructions:   59000002 cycles:   68110298 heartbeat IPC: 0.21219 cumulative IPC: 0.21166 (Simulation time: 0 hr 7 min 15 sec) 
Heartbeat CPU  1 instructions:   60000000 cycles:   70221415 heartbeat IPC: 0.20622 cumulative IPC: 0.21034 (Simulation time: 0 hr 7 min 18 sec) 
Heartbeat CPU  2 instructions:   76000000 cycles:   72284413 heartbeat IPC: 0.16731 cumulative IPC: 0.34735 (Simulation time: 0 hr 7 min 22 sec) 
Heartbeat CPU  3 instructions:   60000000 cycles:   72356738 heartbeat IPC: 0.21111 cumulative IPC: 0.21067 (Simulation time: 0 hr 7 min 22 sec) 
Heartbeat CPU  0 instructions:   60000000 cycles:   72810049 heartbeat IPC: 0.21278 cumulative IPC: 0.21177 (Simulation time: 0 hr 7 min 23 sec) 
Heartbeat CPU  1 instructions:   61000003 cycles:   74944167 heartbeat IPC: 0.21174 cumulative IPC: 0.21047 (Simulation time: 0 hr 7 min 27 sec) 
Heartbeat CPU  3 instructions:   61000003 cycles:   77187756 heartbeat IPC: 0.20700 cumulative IPC: 0.21033 (Simulation time: 0 hr 7 min 31 sec) 
Heartbeat CPU  0 instructions:   61000001 cycles:   77594702 heartbeat IPC: 0.20900 cumulative IPC: 0.21151 (Simulation time: 0 hr 7 min 32 sec) 
Heartbeat CPU  2 instructions:   77000001 cycles:   78185385 heartbeat IPC: 0.16946 cumulative IPC: 0.32739 (Simulation time: 0 hr 7 min 33 sec) 
Heartbeat CPU  1 instructions:   62000002 cycles:   79683271 heartbeat IPC: 0.21101 cumulative IPC: 0.21052 (Simulation time: 0 hr 7 min 35 sec) 
Heartbeat CPU  3 instructions:   62000002 cycles:   81908674 heartbeat IPC: 0.21182 cumulative IPC: 0.21045 (Simulation time: 0 hr 7 min 39 sec) 
Heartbeat CPU  0 instructions:   62000001 cycles:   82246577 heartbeat IPC: 0.21497 cumulative IPC: 0.21180 (Simulation time: 0 hr 7 min 40 sec) 
Heartbeat CPU  0 instructions:   63000001 cycles:   83986901 heartbeat IPC: 0.57461 cumulative IPC: 0.22261 (Simulation time: 0 hr 7 min 44 sec) 
Heartbeat CPU  2 instructions:   78000003 cycles:   83986954 heartbeat IPC: 0.17237 cumulative IPC: 0.31199 (Simulation time: 0 hr 7 min 44 sec) 
Heartbeat CPU  1 instructions:   63000003 cycles:   84402985 heartbeat IPC: 0.21188 cumulative IPC: 0.21063 (Simulation time: 0 hr 7 min 45 sec) 
Heartbeat CPU  0 instructions:   64000000 cycles:   85437945 heartbeat IPC: 0.68916 cumulative IPC: 0.23392 (Simulation time: 0 hr 7 min 48 sec) 
Heartbeat CPU  3 instructions:   63000001 cycles:   86614823 heartbeat IPC: 0.21249 cumulative IPC: 0.21061 (Simulation time: 0 hr 7 min 51 sec) 
Heartbeat CPU  0 instructions:   65000000 cycles:   86929942 heartbeat IPC: 0.67024 cumulative IPC: 0.24453 (Simulation time: 0 hr 7 min 52 sec) 
Heartbeat CPU  0 instructions:   66000003 cycles:   88352242 heartbeat IPC: 0.70309 cumulative IPC: 0.25492 (Simulation time: 0 hr 7 min 55 sec) 
Heartbeat CPU  1 instructions:   64000000 cycles:   89058858 heartbeat IPC: 0.21478 cumulative IPC: 0.21093 (Simulation time: 0 hr 7 min 57 sec) 
Heartbeat CPU  0 instructions:   67000001 cycles:   89746735 heartbeat IPC: 0.71711 cumulative IPC: 0.26497 (Simulation time: 0 hr 7 min 59 sec) 
Heartbeat CPU  2 instructions:   79000000 cycles:   89877489 heartbeat IPC: 0.16976 cumulative IPC: 0.29896 (Simulation time: 0 hr 7 min 59 sec) 
Heartbeat CPU  0 instructions:   68000000 cycles:   91123919 heartbeat IPC: 0.72612 cumulative IPC: 0.27466 (Simulation time: 0 hr 8 min 3 sec) 
Heartbeat CPU  3 instructions:   64000000 cycles:   91233432 heartbeat IPC: 0.21652 cumulative IPC: 0.21102 (Simulation time: 0 hr 8 min 3 sec) 
Heartbeat CPU  1 instructions:   65000000 cycles:   93732568 heartbeat IPC: 0.21396 cumulative IPC: 0.21114 (Simulation time: 0 hr 8 min 8 sec) 
Heartbeat CPU  0 instructions:   69000003 cycles:   95333269 heartbeat IPC: 0.23757 cumulative IPC: 0.27242 (Simulation time: 0 hr 8 min 10 sec) 
Heartbeat CPU  2 instructions:   80000000 cycles:   95725957 heartbeat IPC: 0.17098 cumulative IPC: 0.28829 (Simulation time: 0 hr 8 min 11 sec) 
Heartbeat CPU  3 instructions:   65000003 cycles:   95955323 heartbeat IPC: 0.21178 cumulative IPC: 0.21108 (Simulation time: 0 hr 8 min 12 sec) 
Heartbeat CPU  1 instructions:   66000002 cycles:   97060876 heartbeat IPC: 0.30045 cumulative IPC: 0.21530 (Simulation time: 0 hr 8 min 14 sec) 
Heartbeat CPU  1 instructions:   67000003 cycles:   98499072 heartbeat IPC: 0.69532 cumulative IPC: 0.22477 (Simulation time: 0 hr 8 min 18 sec) 
Heartbeat CPU  1 instructions:   68000000 cycles:   99849082 heartbeat IPC: 0.74073 cumulative IPC: 0.23415 (Simulation time: 0 hr 8 min 22 sec) 
Heartbeat CPU  0 instructions:   70000001 cycles:  100005995 heartbeat IPC: 0.21401 cumulative IPC: 0.26875 (Simulation time: 0 hr 8 min 22 sec) 
Heartbeat CPU  3 instructions:   66000002 cycles:  100508619 heartbeat IPC: 0.21962 cumulative IPC: 0.21159 (Simulation time: 0 hr 8 min 23 sec) 
Heartbeat CPU  1 instructions:   69000003 cycles:  101184004 heartbeat IPC: 0.74911 cumulative IPC: 0.24324 (Simulation time: 0 hr 8 min 25 sec) 
Heartbeat CPU  2 instructions:   81000000 cycles:  101697926 heartbeat IPC: 0.16745 cumulative IPC: 0.27881 (Simulation time: 0 hr 8 min 26 sec) 
Heartbeat CPU  1 instructions:   70000001 cycles:  104062370 heartbeat IPC: 0.34742 cumulative IPC: 0.24706 (Simulation time: 0 hr 8 min 31 sec) 
Heartbeat CPU  0 instructions:   71000000 cycles:  104587932 heartbeat IPC: 0.21825 cumulative IPC: 0.26583 (Simulation time: 0 hr 8 min 32 sec) 
Heartbeat CPU  3 instructions:   67000003 cycles:  105194255 heartbeat IPC: 0.21342 cumulative IPC: 0.21170 (Simulation time: 0 hr 8 min 33 sec) 
Heartbeat CPU  2 instructions:   82000000 cycles:  107594817 heartbeat IPC: 0.16958 cumulative IPC: 0.27095 (Simulation time: 0 hr 8 min 37 sec) 
Heartbeat CPU  1 instructions:   71000000 cycles:  108732377 heartbeat IPC: 0.21413 cumulative IPC: 0.24521 (Simulation time: 0 hr 8 min 40 sec) 
Heartbeat CPU  0 instructions:   72000000 cycles:  109191221 heartbeat IPC: 0.21724 cumulative IPC: 0.26315 (Simulation time: 0 hr 8 min 40 sec) 
Heartbeat CPU  3 instructions:   68000000 cycles:  109759017 heartbeat IPC: 0.21907 cumulative IPC: 0.21210 (Simulation time: 0 hr 8 min 41 sec) 
Heartbeat CPU  1 instructions:   72000000 cycles:  113357145 heartbeat IPC: 0.21623 cumulative IPC: 0.24369 (Simulation time: 0 hr 8 min 48 sec) 
Heartbeat CPU  2 instructions:   83000002 cycles:  113515059 heartbeat IPC: 0.16891 cumulative IPC: 0.26408 (Simulation time: 0 hr 8 min 48 sec) 
Heartbeat CPU  0 instructions:   73000001 cycles:  113857875 heartbeat IPC: 0.21429 cumulative IPC: 0.26057 (Simulation time: 0 hr 8 min 49 sec) 
Heartbeat CPU  3 instructions:   69000001 cycles:  114487868 heartbeat IPC: 0.21147 cumulative IPC: 0.21207 (Simulation time: 0 hr 8 min 50 sec) 
Heartbeat CPU  0 instructions:   74000003 cycles:  116896805 heartbeat IPC: 0.32906 cumulative IPC: 0.26285 (Simulation time: 0 hr 8 min 55 sec) 
Heartbeat CPU  1 instructions:   73000002 cycles:  118100547 heartbeat IPC: 0.21082 cumulative IPC: 0.24200 (Simulation time: 0 hr 8 min 58 sec) 
Heartbeat CPU  2 instructions:   84000000 cycles:  118354696 heartbeat IPC: 0.20663 cumulative IPC: 0.26108 (Simulation time: 0 hr 8 min 58 sec) 
Heartbeat CPU  3 instructions:   70000000 cycles:  119237681 heartbeat IPC: 0.21053 cumulative IPC: 0.21199 (Simulation time: 0 hr 9 min 0 sec) 
Heartbeat CPU  0 instructions:   75000000 cycles:  120689412 heartbeat IPC: 0.26367 cumulative IPC: 0.26288 (Simulation time: 0 hr 9 min 3 sec) 
Heartbeat CPU  1 instructions:   74000000 cycles:  122704331 heartbeat IPC: 0.21721 cumulative IPC: 0.24083 (Simulation time: 0 hr 9 min 7 sec) 
Heartbeat CPU  2 instructions:   85000000 cycles:  123241477 heartbeat IPC: 0.20463 cumulative IPC: 0.25826 (Simulation time: 0 hr 9 min 8 sec) 
Heartbeat CPU  3 instructions:   71000000 cycles:  123889774 heartbeat IPC: 0.21496 cumulative IPC: 0.21213 (Simulation time: 0 hr 9 min 9 sec) 
Heartbeat CPU  0 instructions:   76000000 cycles:  125523091 heartbeat IPC: 0.20688 cumulative IPC: 0.26017 (Simulation time: 0 hr 9 min 12 sec) 
Heartbeat CPU  1 instructions:   75000000 cycles:  127396413 heartbeat IPC: 0.21313 cumulative IPC: 0.23955 (Simulation time: 0 hr 9 min 16 sec) 
Heartbeat CPU  3 instructions:   72000000 cycles:  128567979 heartbeat IPC: 0.21376 cumulative IPC: 0.21220 (Simulation time: 0 hr 9 min 18 sec) 
Heartbeat CPU  2 instructions:   86000001 cycles:  129022486 heartbeat IPC: 0.17298 cumulative IPC: 0.25349 (Simulation time: 0 hr 9 min 19 sec) 
Heartbeat CPU  0 instructions:   77000000 cycles:  130277345 heartbeat IPC: 0.21034 cumulative IPC: 0.25791 (Simulation time: 0 hr 9 min 21 sec) 
Heartbeat CPU  1 instructions:   76000000 cycles:  132047048 heartbeat IPC: 0.21502 cumulative IPC: 0.23848 (Simulation time: 0 hr 9 min 24 sec) 
Heartbeat CPU  3 instructions:   73000003 cycles:  133304820 heartbeat IPC: 0.21111 cumulative IPC: 0.21216 (Simulation time: 0 hr 9 min 26 sec) 
Heartbeat CPU  2 instructions:   87000002 cycles:  134990355 heartbeat IPC: 0.16756 cumulative IPC: 0.24881 (Simulation time: 0 hr 9 min 29 sec) 
Heartbeat CPU  0 instructions:   78000002 cycles:  135020687 heartbeat IPC: 0.21082 cumulative IPC: 0.25587 (Simulation time: 0 hr 9 min 29 sec) 
Heartbeat CPU  1 instructions:   77000001 cycles:  136693938 heartbeat IPC: 0.21520 cumulative IPC: 0.23750 (Simulation time: 0 hr 9 min 33 sec) 
Heartbeat CPU  3 instructions:   74000000 cycles:  137929450 heartbeat IPC: 0.21623 cumulative IPC: 0.21232 (Simulation time: 0 hr 9 min 35 sec) 
Heartbeat CPU  0 instructions:   79000003 cycles:  139686696 heartbeat IPC: 0.21432 cumulative IPC: 0.25417 (Simulation time: 0 hr 9 min 38 sec) 
Heartbeat CPU  2 instructions:   88000000 cycles:  140014463 heartbeat IPC: 0.19904 cumulative IPC: 0.24662 (Simulation time: 0 hr 9 min 39 sec) 
Heartbeat CPU  1 instructions:   78000003 cycles:  141551750 heartbeat IPC: 0.20585 cumulative IPC: 0.23618 (Simulation time: 0 hr 9 min 42 sec) 
Heartbeat CPU  3 instructions:   75000000 cycles:  142600827 heartbeat IPC: 0.21407 cumulative IPC: 0.21239 (Simulation time: 0 hr 9 min 44 sec) 
Heartbeat CPU  0 instructions:   80000000 cycles:  144510112 heartbeat IPC: 0.20732 cumulative IPC: 0.25227 (Simulation time: 0 hr 9 min 47 sec) 
Heartbeat CPU  2 instructions:   89000000 cycles:  145389856 heartbeat IPC: 0.18603 cumulative IPC: 0.24390 (Simulation time: 0 hr 9 min 49 sec) 
Heartbeat CPU  1 instructions:   79000003 cycles:  146367571 heartbeat IPC: 0.20765 cumulative IPC: 0.23504 (Simulation time: 0 hr 9 min 50 sec) 
Heartbeat CPU  3 instructions:   76000000 cycles:  147423563 heartbeat IPC: 0.20735 cumulative IPC: 0.21219 (Simulation time: 0 hr 9 min 52 sec) 
Heartbeat CPU  0 instructions:   81000003 cycles:  149305431 heartbeat IPC: 0.20854 cumulative IPC: 0.25057 (Simulation time: 0 hr 9 min 56 sec) 
Heartbeat CPU  1 instructions:   80000000 cycles:  151116782 heartbeat IPC: 0.21056 cumulative IPC: 0.23411 (Simulation time: 0 hr 9 min 59 sec) 
Heartbeat CPU  2 instructions:   90000001 cycles:  151139200 heartbeat IPC: 0.17393 cumulative IPC: 0.24070 (Simulation time: 0 hr 9 min 59 sec) 
Heartbeat CPU  3 instructions:   77000000 cycles:  152188285 heartbeat IPC: 0.20988 cumulative IPC: 0.21211 (Simulation time: 0 hr 10 min 1 sec) 
Heartbeat CPU  0 instructions:   82000001 cycles:  153957753 heartbeat IPC: 0.21495 cumulative IPC: 0.24928 (Simulation time: 0 hr 10 min 4 sec) 
Heartbeat CPU  1 instructions:   81000003 cycles:  155902030 heartbeat IPC: 0.20898 cumulative IPC: 0.23319 (Simulation time: 0 hr 10 min 8 sec) 
Heartbeat CPU  2 instructions:   91000003 cycles:  156904038 heartbeat IPC: 0.17347 cumulative IPC: 0.23775 (Simulation time: 0 hr 10 min 10 sec) 
Heartbeat CPU  3 instructions:   78000000 cycles:  156925577 heartbeat IPC: 0.21109 cumulative IPC: 0.21207 (Simulation time: 0 hr 10 min 10 sec) 
Heartbeat CPU  0 instructions:   83000000 cycles:  158710376 heartbeat IPC: 0.21041 cumulative IPC: 0.24789 (Simulation time: 0 hr 10 min 13 sec) 
Heartbeat CPU  1 instructions:   82000000 cycles:  160664578 heartbeat IPC: 0.20997 cumulative IPC: 0.23237 (Simulation time: 0 hr 10 min 16 sec) 
Heartbeat CPU  3 instructions:   79000000 cycles:  161739497 heartbeat IPC: 0.20773 cumulative IPC: 0.21192 (Simulation time: 0 hr 10 min 18 sec) 
Heartbeat CPU  2 instructions:   92000000 cycles:  162776654 heartbeat IPC: 0.17028 cumulative IPC: 0.23486 (Simulation time: 0 hr 10 min 20 sec) 
Heartbeat CPU  0 instructions:   84000000 cycles:  163437950 heartbeat IPC: 0.21152 cumulative IPC: 0.24665 (Simulation time: 0 hr 10 min 21 sec) 
Heartbeat CPU  1 instructions:   83000001 cycles:  165352150 heartbeat IPC: 0.21333 cumulative IPC: 0.23173 (Simulation time: 0 hr 10 min 25 sec) 
Heartbeat CPU  3 instructions:   80000000 cycles:  166490417 heartbeat IPC: 0.21049 cumulative IPC: 0.21187 (Simulation time: 0 hr 10 min 27 sec) 
Heartbeat CPU  0 instructions:   85000000 cycles:  168319041 heartbeat IPC: 0.20487 cumulative IPC: 0.24522 (Simulation time: 0 hr 10 min 30 sec) 
Heartbeat CPU  2 instructions:   93000001 cycles:  168589932 heartbeat IPC: 0.17202 cumulative IPC: 0.23230 (Simulation time: 0 hr 10 min 31 sec) 
Heartbeat CPU  1 instructions:   84000000 cycles:  170268730 heartbeat IPC: 0.20339 cumulative IPC: 0.23077 (Simulation time: 0 hr 10 min 34 sec) 
Heartbeat CPU  3 instructions:   81000003 cycles:  171293561 heartbeat IPC: 0.20820 cumulative IPC: 0.21175 (Simulation time: 0 hr 10 min 36 sec) 
Heartbeat CPU  0 instructions:   86000003 cycles:  172971763 heartbeat IPC: 0.21493 cumulative IPC: 0.24426 (Simulation time: 0 hr 10 min 39 sec) 
Heartbeat CPU  2 instructions:   94000002 cycles:  174362357 heartbeat IPC: 0.17324 cumulative IPC: 0.23001 (Simulation time: 0 hr 10 min 41 sec) 
Heartbeat CPU  1 instructions:   85000002 cycles:  175046989 heartbeat IPC: 0.20928 cumulative IPC: 0.23008 (Simulation time: 0 hr 10 min 42 sec) 
Heartbeat CPU  3 instructions:   82000002 cycles:  176041201 heartbeat IPC: 0.21063 cumulative IPC: 0.21171 (Simulation time: 0 hr 10 min 44 sec) 
Heartbeat CPU  0 instructions:   87000003 cycles:  177839533 heartbeat IPC: 0.20543 cumulative IPC: 0.24302 (Simulation time: 0 hr 10 min 47 sec) 
Heartbeat CPU  1 instructions:   86000003 cycles:  179876597 heartbeat IPC: 0.20706 cumulative IPC: 0.22936 (Simulation time: 0 hr 10 min 51 sec) 
Heartbeat CPU  2 instructions:   95000001 cycles:  180141726 heartbeat IPC: 0.17303 cumulative IPC: 0.22788 (Simulation time: 0 hr 10 min 52 sec) 
Heartbeat CPU  3 instructions:   83000000 cycles:  180745540 heartbeat IPC: 0.21257 cumulative IPC: 0.21174 (Simulation time: 0 hr 10 min 53 sec) 
Heartbeat CPU  0 instructions:   88000000 cycles:  182659059 heartbeat IPC: 0.20749 cumulative IPC: 0.24193 (Simulation time: 0 hr 10 min 56 sec) 
Heartbeat CPU  1 instructions:   87000002 cycles:  184671533 heartbeat IPC: 0.20855 cumulative IPC: 0.22874 (Simulation time: 0 hr 11 min 0 sec) 
Heartbeat CPU  3 instructions:   84000000 cycles:  185439765 heartbeat IPC: 0.21303 cumulative IPC: 0.21178 (Simulation time: 0 hr 11 min 1 sec) 
Heartbeat CPU  2 instructions:   96000000 cycles:  185894591 heartbeat IPC: 0.17383 cumulative IPC: 0.22594 (Simulation time: 0 hr 11 min 2 sec) 
Heartbeat CPU  0 instructions:   89000001 cycles:  187350852 heartbeat IPC: 0.21314 cumulative IPC: 0.24109 (Simulation time: 0 hr 11 min 5 sec) 
Heartbeat CPU  1 instructions:   88000000 cycles:  189293731 heartbeat IPC: 0.21635 cumulative IPC: 0.22839 (Simulation time: 0 hr 11 min 8 sec) 
Heartbeat CPU  3 instructions:   85000002 cycles:  190310337 heartbeat IPC: 0.20532 cumulative IPC: 0.21159 (Simulation time: 0 hr 11 min 10 sec) 
Heartbeat CPU  2 instructions:   97000000 cycles:  191611532 heartbeat IPC: 0.17492 cumulative IPC: 0.22418 (Simulation time: 0 hr 11 min 13 sec) 
Heartbeat CPU  0 instructions:   90000000 cycles:  192102286 heartbeat IPC: 0.21046 cumulative IPC: 0.24022 (Simulation time: 0 hr 11 min 14 sec) 
Heartbeat CPU  1 instructions:   89000000 cycles:  193922712 heartbeat IPC: 0.21603 cumulative IPC: 0.22805 (Simulation time: 0 hr 11 min 17 sec) 
Heartbeat CPU  3 instructions:   86000003 cycles:  194998414 heartbeat IPC: 0.21331 cumulative IPC: 0.21163 (Simulation time: 0 hr 11 min 19 sec) 
Heartbeat CPU  0 instructions:   91000002 cycles:  196830867 heartbeat IPC: 0.21148 cumulative IPC: 0.23943 (Simulation time: 0 hr 11 min 22 sec) 
Heartbeat CPU  2 instructions:   98000003 cycles:  197097702 heartbeat IPC: 0.18228 cumulative IPC: 0.22284 (Simulation time: 0 hr 11 min 23 sec) 
Heartbeat CPU  1 instructions:   90000000 cycles:  198620753 heartbeat IPC: 0.21285 cumulative IPC: 0.22763 (Simulation time: 0 hr 11 min 26 sec) 
Heartbeat CPU  3 instructions:   87000001 cycles:  199798161 heartbeat IPC: 0.20834 cumulative IPC: 0.21154 (Simulation time: 0 hr 11 min 28 sec) 
Heartbeat CPU  0 instructions:   92000000 cycles:  201651123 heartbeat IPC: 0.20746 cumulative IPC: 0.23855 (Simulation time: 0 hr 11 min 31 sec) 
Heartbeat CPU  2 instructions:   99000000 cycles:  202864226 heartbeat IPC: 0.17341 cumulative IPC: 0.22124 (Simulation time: 0 hr 11 min 33 sec) 
Heartbeat CPU  1 instructions:   91000000 cycles:  203385918 heartbeat IPC: 0.20986 cumulative IPC: 0.22716 (Simulation time: 0 hr 11 min 34 sec) 
Heartbeat CPU  3 instructions:   88000000 cycles:  204639194 heartbeat IPC: 0.20657 cumulative IPC: 0.21141 (Simulation time: 0 hr 11 min 37 sec) 
Heartbeat CPU  0 instructions:   93000000 cycles:  206438273 heartbeat IPC: 0.20889 cumulative IPC: 0.23777 (Simulation time: 0 hr 11 min 40 sec) 
Heartbeat CPU  1 instructions:   92000000 cycles:  208123658 heartbeat IPC: 0.21107 cumulative IPC: 0.22674 (Simulation time: 0 hr 11 min 43 sec) 
*** Reached end of trace for Core: 2 Repeating trace: /data3/STREAMING/traces/streaming_phase1_core2.trace.xz
Heartbeat CPU  2 instructions:  100000000 cycles:  208466154 heartbeat IPC: 0.17851 cumulative IPC: 0.21993 (Simulation time: 0 hr 11 min 44 sec) 
Heartbeat CPU  3 instructions:   89000003 cycles:  209378126 heartbeat IPC: 0.21102 cumulative IPC: 0.21140 (Simulation time: 0 hr 11 min 46 sec) 
Heartbeat CPU  0 instructions:   94000000 cycles:  211255251 heartbeat IPC: 0.20760 cumulative IPC: 0.23698 (Simulation time: 0 hr 11 min 50 sec) 
Heartbeat CPU  2 instructions:  101000001 cycles:  211258685 heartbeat IPC: 0.35810 cumulative IPC: 0.22201 (Simulation time: 0 hr 11 min 50 sec) 
Heartbeat CPU  1 instructions:   93000001 cycles:  213006829 heartbeat IPC: 0.20479 cumulative IPC: 0.22617 (Simulation time: 0 hr 11 min 53 sec) 
Heartbeat CPU  2 instructions:  102000003 cycles:  214097717 heartbeat IPC: 0.35223 cumulative IPC: 0.22397 (Simulation time: 0 hr 11 min 56 sec) 
Heartbeat CPU  3 instructions:   90000003 cycles:  214125356 heartbeat IPC: 0.21065 cumulative IPC: 0.21138 (Simulation time: 0 hr 11 min 56 sec) 
Heartbeat CPU  0 instructions:   95000000 cycles:  216062762 heartbeat IPC: 0.20801 cumulative IPC: 0.23625 (Simulation time: 0 hr 12 min 0 sec) 
Heartbeat CPU  2 instructions:  103000001 cycles:  216850902 heartbeat IPC: 0.36321 cumulative IPC: 0.22597 (Simulation time: 0 hr 12 min 2 sec) 
Heartbeat CPU  1 instructions:   94000003 cycles:  217765396 heartbeat IPC: 0.21015 cumulative IPC: 0.22577 (Simulation time: 0 hr 12 min 4 sec) 
Heartbeat CPU  3 instructions:   91000000 cycles:  218870273 heartbeat IPC: 0.21075 cumulative IPC: 0.21136 (Simulation time: 0 hr 12 min 6 sec) 
Heartbeat CPU  2 instructions:  104000000 cycles:  219687551 heartbeat IPC: 0.35253 cumulative IPC: 0.22782 (Simulation time: 0 hr 12 min 8 sec) 
Heartbeat CPU  0 instructions:   96000000 cycles:  220820815 heartbeat IPC: 0.21017 cumulative IPC: 0.23562 (Simulation time: 0 hr 12 min 11 sec) 
Heartbeat CPU  2 instructions:  105000001 cycles:  222438145 heartbeat IPC: 0.36356 cumulative IPC: 0.22972 (Simulation time: 0 hr 12 min 14 sec) 
Heartbeat CPU  1 instructions:   95000002 cycles:  222508446 heartbeat IPC: 0.21083 cumulative IPC: 0.22541 (Simulation time: 0 hr 12 min 14 sec) 
Heartbeat CPU  3 instructions:   92000000 cycles:  223646666 heartbeat IPC: 0.20936 cumulative IPC: 0.21132 (Simulation time: 0 hr 12 min 17 sec) 
Heartbeat CPU  2 instructions:  106000002 cycles:  224951183 heartbeat IPC: 0.39793 cumulative IPC: 0.23184 (Simulation time: 0 hr 12 min 20 sec) 
Heartbeat CPU  0 instructions:   97000003 cycles:  225559743 heartbeat IPC: 0.21102 cumulative IPC: 0.23503 (Simulation time: 0 hr 12 min 21 sec) 
Heartbeat CPU  1 instructions:   96000000 cycles:  227143288 heartbeat IPC: 0.21576 cumulative IPC: 0.22519 (Simulation time: 0 hr 12 min 24 sec) 
Heartbeat CPU  3 instructions:   93000000 cycles:  228420420 heartbeat IPC: 0.20948 cumulative IPC: 0.21127 (Simulation time: 0 hr 12 min 26 sec) 
Heartbeat CPU  0 instructions:   98000002 cycles:  230346358 heartbeat IPC: 0.20892 cumulative IPC: 0.23442 (Simulation time: 0 hr 12 min 30 sec) 
Heartbeat CPU  2 instructions:  107000003 cycles:  230360717 heartbeat IPC: 0.18486 cumulative IPC: 0.23060 (Simulation time: 0 hr 12 min 30 sec) 
Heartbeat CPU  1 instructions:   97000003 cycles:  231817709 heartbeat IPC: 0.21393 cumulative IPC: 0.22493 (Simulation time: 0 hr 12 min 32 sec) 
Heartbeat CPU  3 instructions:   94000000 cycles:  233194161 heartbeat IPC: 0.20948 cumulative IPC: 0.21123 (Simulation time: 0 hr 12 min 35 sec) 
Heartbeat CPU  0 instructions:   99000000 cycles:  235315530 heartbeat IPC: 0.20124 cumulative IPC: 0.23364 (Simulation time: 0 hr 12 min 39 sec) 
Heartbeat CPU  2 instructions:  108000000 cycles:  235940528 heartbeat IPC: 0.17922 cumulative IPC: 0.22923 (Simulation time: 0 hr 12 min 40 sec) 
Heartbeat CPU  1 instructions:   98000000 cycles:  236574791 heartbeat IPC: 0.21021 cumulative IPC: 0.22460 (Simulation time: 0 hr 12 min 41 sec) 
Heartbeat CPU  3 instructions:   95000000 cycles:  237945149 heartbeat IPC: 0.21048 cumulative IPC: 0.21121 (Simulation time: 0 hr 12 min 44 sec) 
*** Reached end of trace for Core: 0 Repeating trace: /data3/STREAMING/traces/streaming_phase1_core0.trace.xz
Heartbeat CPU  0 instructions:  100000000 cycles:  240120131 heartbeat IPC: 0.20813 cumulative IPC: 0.23307 (Simulation time: 0 hr 12 min 47 sec) 
Heartbeat CPU  1 instructions:   99000000 cycles:  241482793 heartbeat IPC: 0.20375 cumulative IPC: 0.22413 (Simulation time: 0 hr 12 min 50 sec) 
Heartbeat CPU  2 instructions:  109000003 cycles:  241704112 heartbeat IPC: 0.17350 cumulative IPC: 0.22775 (Simulation time: 0 hr 12 min 50 sec) 
Heartbeat CPU  3 instructions:   96000000 cycles:  242719175 heartbeat IPC: 0.20947 cumulative IPC: 0.21118 (Simulation time: 0 hr 12 min 52 sec) 
Heartbeat CPU  0 instructions:  101000001 cycles:  244827161 heartbeat IPC: 0.21245 cumulative IPC: 0.23262 (Simulation time: 0 hr 12 min 56 sec) 
*** Reached end of trace for Core: 1 Repeating trace: /data3/STREAMING/traces/streaming_phase1_core1.trace.xz
Heartbeat CPU  1 instructions:  100000000 cycles:  246211665 heartbeat IPC: 0.21147 cumulative IPC: 0.22386 (Simulation time: 0 hr 12 min 59 sec) 
Heartbeat CPU  3 instructions:   97000002 cycles:  247502550 heartbeat IPC: 0.20906 cumulative IPC: 0.21113 (Simulation time: 0 hr 13 min 1 sec) 
Heartbeat CPU  2 instructions:  110000002 cycles:  247557382 heartbeat IPC: 0.17084 cumulative IPC: 0.22625 (Simulation time: 0 hr 13 min 1 sec) 
Heartbeat CPU  0 instructions:  102000000 cycles:  249457007 heartbeat IPC: 0.21599 cumulative IPC: 0.23228 (Simulation time: 0 hr 13 min 5 sec) 
Heartbeat CPU  1 instructions:  101000002 cycles:  250743694 heartbeat IPC: 0.22065 cumulative IPC: 0.22379 (Simulation time: 0 hr 13 min 7 sec) 
Heartbeat CPU  2 instructions:  111000001 cycles:  252131380 heartbeat IPC: 0.21863 cumulative IPC: 0.22609 (Simulation time: 0 hr 13 min 10 sec) 
Heartbeat CPU  3 instructions:   98000003 cycles:  252187574 heartbeat IPC: 0.21345 cumulative IPC: 0.21118 (Simulation time: 0 hr 13 min 10 sec) 
Heartbeat CPU  0 instructions:  103000000 cycles:  254248822 heartbeat IPC: 0.20869 cumulative IPC: 0.23178 (Simulation time: 0 hr 13 min 14 sec) 
Heartbeat CPU  2 instructions:  112000000 cycles:  254891675 heartbeat IPC: 0.36228 cumulative IPC: 0.22773 (Simulation time: 0 hr 13 min 16 sec) 
Heartbeat CPU  1 instructions:  102000001 cycles:  255374723 heartbeat IPC: 0.21593 cumulative IPC: 0.22363 (Simulation time: 0 hr 13 min 17 sec) 
Heartbeat CPU  3 instructions:   99000002 cycles:  257101044 heartbeat IPC: 0.20352 cumulative IPC: 0.21102 (Simulation time: 0 hr 13 min 21 sec) 
Heartbeat CPU  2 instructions:  113000002 cycles:  257601196 heartbeat IPC: 0.36907 cumulative IPC: 0.22938 (Simulation time: 0 hr 13 min 22 sec) 
Heartbeat CPU  0 instructions:  104000000 cycles:  258906034 heartbeat IPC: 0.21472 cumulative IPC: 0.23144 (Simulation time: 0 hr 13 min 25 sec) 
Heartbeat CPU  1 instructions:  103000000 cycles:  260053647 heartbeat IPC: 0.21372 cumulative IPC: 0.22344 (Simulation time: 0 hr 13 min 27 sec) 
Heartbeat CPU  2 instructions:  114000000 cycles:  260396306 heartbeat IPC: 0.35777 cumulative IPC: 0.23091 (Simulation time: 0 hr 13 min 28 sec) 
*** Reached end of trace for Core: 3 Repeating trace: /data3/STREAMING/traces/streaming_phase1_core3.trace.xz
Heartbeat CPU  3 instructions:  100000000 cycles:  262094135 heartbeat IPC: 0.20028 cumulative IPC: 0.21079 (Simulation time: 0 hr 13 min 32 sec) 
Heartbeat CPU  2 instructions:  115000000 cycles:  263190545 heartbeat IPC: 0.35788 cumulative IPC: 0.23240 (Simulation time: 0 hr 13 min 34 sec) 
Heartbeat CPU  0 instructions:  105000002 cycles:  263586218 heartbeat IPC: 0.21367 cumulative IPC: 0.23109 (Simulation time: 0 hr 13 min 35 sec) 
Heartbeat CPU  1 instructions:  104000000 cycles:  264653035 heartbeat IPC: 0.21742 cumulative IPC: 0.22332 (Simulation time: 0 hr 13 min 37 sec) 
Heartbeat CPU  2 instructions:  116000000 cycles:  265859311 heartbeat IPC: 0.37471 cumulative IPC: 0.23398 (Simulation time: 0 hr 13 min 40 sec) 
Heartbeat CPU  3 instructions:  101000002 cycles:  266796489 heartbeat IPC: 0.21266 cumulative IPC: 0.21083 (Simulation time: 0 hr 13 min 42 sec) 
Heartbeat CPU  0 instructions:  106000002 cycles:  267865796 heartbeat IPC: 0.23367 cumulative IPC: 0.23114 (Simulation time: 0 hr 13 min 44 sec) 
Heartbeat CPU  2 instructions:  117000000 cycles:  268642755 heartbeat IPC: 0.35927 cumulative IPC: 0.23542 (Simulation time: 0 hr 13 min 46 sec) 
Heartbeat CPU  1 instructions:  105000000 cycles:  269316708 heartbeat IPC: 0.21442 cumulative IPC: 0.22315 (Simulation time: 0 hr 13 min 47 sec) 
Heartbeat CPU  2 instructions:  118000000 cycles:  271225149 heartbeat IPC: 0.38724 cumulative IPC: 0.23702 (Simulation time: 0 hr 13 min 52 sec) 
Heartbeat CPU  3 instructions:  102000000 cycles:  271515128 heartbeat IPC: 0.21193 cumulative IPC: 0.21085 (Simulation time: 0 hr 13 min 52 sec) 
Heartbeat CPU  0 instructions:  107000001 cycles:  271976987 heartbeat IPC: 0.24324 cumulative IPC: 0.23134 (Simulation time: 0 hr 13 min 53 sec) 
Heartbeat CPU  2 instructions:  119000003 cycles:  273802413 heartbeat IPC: 0.38801 cumulative IPC: 0.23858 (Simulation time: 0 hr 13 min 58 sec) 
Heartbeat CPU  1 instructions:  106000002 cycles:  274016960 heartbeat IPC: 0.21275 cumulative IPC: 0.22295 (Simulation time: 0 hr 13 min 58 sec) 
Heartbeat CPU  3 instructions:  103000003 cycles:  276175515 heartbeat IPC: 0.21458 cumulative IPC: 0.21092 (Simulation time: 0 hr 14 min 3 sec) 
Heartbeat CPU  2 instructions:  120000000 cycles:  276389180 heartbeat IPC: 0.38658 cumulative IPC: 0.24011 (Simulation time: 0 hr 14 min 3 sec) 
Heartbeat CPU  0 instructions:  108000000 cycles:  276486949 heartbeat IPC: 0.22173 cumulative IPC: 0.23117 (Simulation time: 0 hr 14 min 3 sec) 
Heartbeat CPU  1 instructions:  107000002 cycles:  278457895 heartbeat IPC: 0.22518 cumulative IPC: 0.22299 (Simulation time: 0 hr 14 min 8 sec) 
Heartbeat CPU  2 instructions:  121000003 cycles:  279075738 heartbeat IPC: 0.37222 cumulative IPC: 0.24151 (Simulation time: 0 hr 14 min 9 sec) 
Heartbeat CPU  3 instructions:  104000000 cycles:  280901061 heartbeat IPC: 0.21162 cumulative IPC: 0.21093 (Simulation time: 0 hr 14 min 13 sec) 
Heartbeat CPU  0 instructions:  109000002 cycles:  281141117 heartbeat IPC: 0.21486 cumulative IPC: 0.23087 (Simulation time: 0 hr 14 min 14 sec) 
Heartbeat CPU  2 instructions:  122000001 cycles:  281873084 heartbeat IPC: 0.35748 cumulative IPC: 0.24278 (Simulation time: 0 hr 14 min 15 sec) 
Heartbeat CPU  1 instructions:  108000000 cycles:  283079739 heartbeat IPC: 0.21636 cumulative IPC: 0.22287 (Simulation time: 0 hr 14 min 18 sec) 
Heartbeat CPU  2 instructions:  123000001 cycles:  284581945 heartbeat IPC: 0.36916 cumulative IPC: 0.24410 (Simulation time: 0 hr 14 min 21 sec) 
Heartbeat CPU  3 instructions:  105000001 cycles:  285677955 heartbeat IPC: 0.20934 cumulative IPC: 0.21090 (Simulation time: 0 hr 14 min 23 sec) 
Heartbeat CPU  0 instructions:  110000001 cycles:  285851966 heartbeat IPC: 0.21228 cumulative IPC: 0.23054 (Simulation time: 0 hr 14 min 24 sec) 
Heartbeat CPU  2 instructions:  124000000 cycles:  287505555 heartbeat IPC: 0.34204 cumulative IPC: 0.24519 (Simulation time: 0 hr 14 min 28 sec) 
Heartbeat CPU  1 instructions:  109000001 cycles:  287808495 heartbeat IPC: 0.21147 cumulative IPC: 0.22267 (Simulation time: 0 hr 14 min 29 sec) 
Heartbeat CPU  3 instructions:  106000002 cycles:  288180556 heartbeat IPC: 0.39958 cumulative IPC: 0.21270 (Simulation time: 0 hr 14 min 30 sec) 
Heartbeat CPU  2 instructions:  125000001 cycles:  290430969 heartbeat IPC: 0.34183 cumulative IPC: 0.24626 (Simulation time: 0 hr 14 min 34 sec) 
Heartbeat CPU  0 instructions:  111000001 cycles:  290550591 heartbeat IPC: 0.21283 cumulative IPC: 0.23022 (Simulation time: 0 hr 14 min 35 sec) 
Heartbeat CPU  1 instructions:  110000003 cycles:  292659605 heartbeat IPC: 0.20614 cumulative IPC: 0.22237 (Simulation time: 0 hr 14 min 39 sec) 
Heartbeat CPU  3 instructions:  107000000 cycles:  292707347 heartbeat IPC: 0.22091 cumulative IPC: 0.21284 (Simulation time: 0 hr 14 min 39 sec) 
Heartbeat CPU  2 instructions:  126000003 cycles:  293050683 heartbeat IPC: 0.38172 cumulative IPC: 0.24759 (Simulation time: 0 hr 14 min 40 sec) 
Heartbeat CPU  0 instructions:  112000000 cycles:  295190284 heartbeat IPC: 0.21553 cumulative IPC: 0.22997 (Simulation time: 0 hr 14 min 45 sec) 
Heartbeat CPU  2 instructions:  127000001 cycles:  295646800 heartbeat IPC: 0.38519 cumulative IPC: 0.24891 (Simulation time: 0 hr 14 min 46 sec) 
Heartbeat CPU  3 instructions:  108000000 cycles:  297324684 heartbeat IPC: 0.21658 cumulative IPC: 0.21290 (Simulation time: 0 hr 14 min 50 sec) 
Heartbeat CPU  1 instructions:  111000003 cycles:  297354613 heartbeat IPC: 0.21299 cumulative IPC: 0.22221 (Simulation time: 0 hr 14 min 50 sec) 
Heartbeat CPU  2 instructions:  128000000 cycles:  298219605 heartbeat IPC: 0.38868 cumulative IPC: 0.25023 (Simulation time: 0 hr 14 min 52 sec) 
Heartbeat CPU  0 instructions:  113000002 cycles:  299786427 heartbeat IPC: 0.21757 cumulative IPC: 0.22976 (Simulation time: 0 hr 14 min 55 sec) 
Heartbeat CPU  2 instructions:  129000002 cycles:  300819430 heartbeat IPC: 0.38464 cumulative IPC: 0.25150 (Simulation time: 0 hr 14 min 57 sec) 
Heartbeat CPU  1 instructions:  112000000 cycles:  302073120 heartbeat IPC: 0.21193 cumulative IPC: 0.22203 (Simulation time: 0 hr 15 min 0 sec) 
Heartbeat CPU  3 instructions:  109000000 cycles:  302073194 heartbeat IPC: 0.21059 cumulative IPC: 0.21286 (Simulation time: 0 hr 15 min 0 sec) 
Heartbeat CPU  2 instructions:  130000003 cycles:  303471307 heartbeat IPC: 0.37709 cumulative IPC: 0.25270 (Simulation time: 0 hr 15 min 3 sec) 
Heartbeat CPU  0 instructions:  114000001 cycles:  304502660 heartbeat IPC: 0.21203 cumulative IPC: 0.22946 (Simulation time: 0 hr 15 min 5 sec) 
Heartbeat CPU  2 instructions:  131000000 cycles:  306153257 heartbeat IPC: 0.37286 cumulative IPC: 0.25384 (Simulation time: 0 hr 15 min 9 sec) 
Heartbeat CPU  1 instructions:  113000001 cycles:  306854723 heartbeat IPC: 0.20914 cumulative IPC: 0.22181 (Simulation time: 0 hr 15 min 10 sec) 
Heartbeat CPU  3 instructions:  110000000 cycles:  306884090 heartbeat IPC: 0.20786 cumulative IPC: 0.21278 (Simulation time: 0 hr 15 min 11 sec) 
Heartbeat CPU  2 instructions:  132000000 cycles:  308818948 heartbeat IPC: 0.37514 cumulative IPC: 0.25499 (Simulation time: 0 hr 15 min 15 sec) 
Heartbeat CPU  0 instructions:  115000001 cycles:  309195581 heartbeat IPC: 0.21309 cumulative IPC: 0.22919 (Simulation time: 0 hr 15 min 16 sec) 
Heartbeat CPU  2 instructions:  133000003 cycles:  311474818 heartbeat IPC: 0.37653 cumulative IPC: 0.25611 (Simulation time: 0 hr 15 min 21 sec) 
Heartbeat CPU  3 instructions:  111000001 cycles:  311584885 heartbeat IPC: 0.21273 cumulative IPC: 0.21277 (Simulation time: 0 hr 15 min 21 sec) 
Heartbeat CPU  1 instructions:  114000003 cycles:  311592516 heartbeat IPC: 0.21107 cumulative IPC: 0.22163 (Simulation time: 0 hr 15 min 21 sec) 
Heartbeat CPU  0 instructions:  116000000 cycles:  313917675 heartbeat IPC: 0.21177 cumulative IPC: 0.22891 (Simulation time: 0 hr 15 min 26 sec) 
Heartbeat CPU  2 instructions:  134000002 cycles:  314066373 heartbeat IPC: 0.38587 cumulative IPC: 0.25728 (Simulation time: 0 hr 15 min 26 sec) 
Heartbeat CPU  3 instructions:  112000000 cycles:  316234923 heartbeat IPC: 0.21505 cumulative IPC: 0.21281 (Simulation time: 0 hr 15 min 31 sec) 
Heartbeat CPU  1 instructions:  115000000 cycles:  316379446 heartbeat IPC: 0.20890 cumulative IPC: 0.22142 (Simulation time: 0 hr 15 min 32 sec) 
Heartbeat CPU  2 instructions:  135000000 cycles:  316757985 heartbeat IPC: 0.37152 cumulative IPC: 0.25834 (Simulation time: 0 hr 15 min 32 sec) 
Heartbeat CPU  0 instructions:  117000002 cycles:  318565651 heartbeat IPC: 0.21515 cumulative IPC: 0.22869 (Simulation time: 0 hr 15 min 36 sec) 
Heartbeat CPU  2 instructions:  136000000 cycles:  319457471 heartbeat IPC: 0.37044 cumulative IPC: 0.25937 (Simulation time: 0 hr 15 min 38 sec) 
Heartbeat CPU  3 instructions:  113000002 cycles:  320805304 heartbeat IPC: 0.21880 cumulative IPC: 0.21290 (Simulation time: 0 hr 15 min 41 sec) 
Heartbeat CPU  1 instructions:  116000000 cycles:  320932908 heartbeat IPC: 0.21961 cumulative IPC: 0.22140 (Simulation time: 0 hr 15 min 42 sec) 
Heartbeat CPU  0 instructions:  118000001 cycles:  323206247 heartbeat IPC: 0.21549 cumulative IPC: 0.22848 (Simulation time: 0 hr 15 min 46 sec) 
Heartbeat CPU  2 instructions:  137000000 cycles:  323805618 heartbeat IPC: 0.22998 cumulative IPC: 0.25894 (Simulation time: 0 hr 15 min 47 sec) 
Heartbeat CPU  3 instructions:  114000001 cycles:  325500130 heartbeat IPC: 0.21300 cumulative IPC: 0.21291 (Simulation time: 0 hr 15 min 50 sec) 
Heartbeat CPU  1 instructions:  117000000 cycles:  325580736 heartbeat IPC: 0.21515 cumulative IPC: 0.22130 (Simulation time: 0 hr 15 min 50 sec) 
Heartbeat CPU  0 instructions:  119000002 cycles:  327775370 heartbeat IPC: 0.21886 cumulative IPC: 0.22834 (Simulation time: 0 hr 15 min 54 sec) 
Heartbeat CPU  2 instructions:  138000002 cycles:  329389014 heartbeat IPC: 0.17910 cumulative IPC: 0.25747 (Simulation time: 0 hr 15 min 57 sec) 
Heartbeat CPU  1 instructions:  118000001 cycles:  330207526 heartbeat IPC: 0.21613 cumulative IPC: 0.22122 (Simulation time: 0 hr 15 min 59 sec) 
Heartbeat CPU  3 instructions:  115000003 cycles:  330218465 heartbeat IPC: 0.21194 cumulative IPC: 0.21289 (Simulation time: 0 hr 15 min 59 sec) 
Heartbeat CPU  0 instructions:  120000000 cycles:  332380370 heartbeat IPC: 0.21715 cumulative IPC: 0.22817 (Simulation time: 0 hr 16 min 3 sec) 
Heartbeat CPU  1 instructions:  119000003 cycles:  334759050 heartbeat IPC: 0.21971 cumulative IPC: 0.22120 (Simulation time: 0 hr 16 min 8 sec) 
Heartbeat CPU  3 instructions:  116000000 cycles:  334819469 heartbeat IPC: 0.21734 cumulative IPC: 0.21296 (Simulation time: 0 hr 16 min 8 sec) 
Heartbeat CPU  2 instructions:  139000001 cycles:  335132038 heartbeat IPC: 0.17412 cumulative IPC: 0.25592 (Simulation time: 0 hr 16 min 8 sec) 
Heartbeat CPU  0 instructions:  121000003 cycles:  336913959 heartbeat IPC: 0.22058 cumulative IPC: 0.22806 (Simulation time: 0 hr 16 min 12 sec) 
Heartbeat CPU  1 instructions:  120000000 cycles:  339268180 heartbeat IPC: 0.22177 cumulative IPC: 0.22121 (Simulation time: 0 hr 16 min 16 sec) 
Heartbeat CPU  3 instructions:  117000000 cycles:  339507588 heartbeat IPC: 0.21331 cumulative IPC: 0.21296 (Simulation time: 0 hr 16 min 17 sec) 
Heartbeat CPU  2 instructions:  140000000 cycles:  340688451 heartbeat IPC: 0.17997 cumulative IPC: 0.25459 (Simulation time: 0 hr 16 min 19 sec) 
Heartbeat CPU  0 instructions:  122000001 cycles:  341507434 heartbeat IPC: 0.21770 cumulative IPC: 0.22791 (Simulation time: 0 hr 16 min 20 sec) 
Heartbeat CPU  1 instructions:  121000002 cycles:  343832295 heartbeat IPC: 0.21910 cumulative IPC: 0.22118 (Simulation time: 0 hr 16 min 25 sec) 
Heartbeat CPU  3 instructions:  118000002 cycles:  344203288 heartbeat IPC: 0.21296 cumulative IPC: 0.21296 (Simulation time: 0 hr 16 min 25 sec) 
Heartbeat CPU  0 instructions:  123000000 cycles:  346282691 heartbeat IPC: 0.20941 cumulative IPC: 0.22763 (Simulation time: 0 hr 16 min 29 sec) 
Heartbeat CPU  2 instructions:  141000001 cycles:  346332335 heartbeat IPC: 0.17718 cumulative IPC: 0.25322 (Simulation time: 0 hr 16 min 29 sec) 
Heartbeat CPU  1 instructions:  122000003 cycles:  348428174 heartbeat IPC: 0.21759 cumulative IPC: 0.22113 (Simulation time: 0 hr 16 min 33 sec) 
Heartbeat CPU  3 instructions:  119000000 cycles:  348816008 heartbeat IPC: 0.21679 cumulative IPC: 0.21302 (Simulation time: 0 hr 16 min 34 sec) 
Heartbeat CPU  0 instructions:  124000000 cycles:  351035324 heartbeat IPC: 0.21041 cumulative IPC: 0.22738 (Simulation time: 0 hr 16 min 38 sec) 
Heartbeat CPU  2 instructions:  142000000 cycles:  352081482 heartbeat IPC: 0.17394 cumulative IPC: 0.25183 (Simulation time: 0 hr 16 min 40 sec) 
Heartbeat CPU  1 instructions:  123000001 cycles:  352896354 heartbeat IPC: 0.22380 cumulative IPC: 0.22116 (Simulation time: 0 hr 16 min 42 sec) 
Heartbeat CPU  3 instructions:  120000000 cycles:  353399153 heartbeat IPC: 0.21819 cumulative IPC: 0.21309 (Simulation time: 0 hr 16 min 43 sec) 
Heartbeat CPU  0 instructions:  125000002 cycles:  355873369 heartbeat IPC: 0.20670 cumulative IPC: 0.22708 (Simulation time: 0 hr 16 min 47 sec) 
Heartbeat CPU  1 instructions:  124000000 cycles:  357564047 heartbeat IPC: 0.21424 cumulative IPC: 0.22106 (Simulation time: 0 hr 16 min 50 sec) 
Heartbeat CPU  2 instructions:  143000001 cycles:  357875267 heartbeat IPC: 0.17260 cumulative IPC: 0.25045 (Simulation time: 0 hr 16 min 51 sec) 
Heartbeat CPU  3 instructions:  121000003 cycles:  357993974 heartbeat IPC: 0.21764 cumulative IPC: 0.21315 (Simulation time: 0 hr 16 min 51 sec) 
Heartbeat CPU  0 instructions:  126000001 cycles:  360552760 heartbeat IPC: 0.21370 cumulative IPC: 0.22689 (Simulation time: 0 hr 16 min 56 sec) 
Heartbeat CPU  1 instructions:  125000002 cycles:  362277137 heartbeat IPC: 0.21218 cumulative IPC: 0.22094 (Simulation time: 0 hr 16 min 59 sec) 
Heartbeat CPU  3 instructions:  122000000 cycles:  362722264 heartbeat IPC: 0.21149 cumulative IPC: 0.21313 (Simulation time: 0 hr 17 min 0 sec) 
Heartbeat CPU  2 instructions:  144000000 cycles:  363685527 heartbeat IPC: 0.17211 cumulative IPC: 0.24910 (Simulation time: 0 hr 17 min 2 sec) 
Heartbeat CPU  0 instructions:  127000002 cycles:  365196926 heartbeat IPC: 0.21532 cumulative IPC: 0.22673 (Simulation time: 0 hr 17 min 5 sec) 
Heartbeat CPU  1 instructions:  126000002 cycles:  366883097 heartbeat IPC: 0.21711 cumulative IPC: 0.22089 (Simulation time: 0 hr 17 min 8 sec) 
Heartbeat CPU  3 instructions:  123000002 cycles:  367452573 heartbeat IPC: 0.21140 cumulative IPC: 0.21310 (Simulation time: 0 hr 17 min 9 sec) 
Heartbeat CPU  2 instructions:  145000003 cycles:  369448150 heartbeat IPC: 0.17353 cumulative IPC: 0.24783 (Simulation time: 0 hr 17 min 13 sec) 
Heartbeat CPU  0 instructions:  128000000 cycles:  369845823 heartbeat IPC: 0.21510 cumulative IPC: 0.22657 (Simulation time: 0 hr 17 min 14 sec) 
Heartbeat CPU  1 instructions:  127000002 cycles:  371539593 heartbeat IPC: 0.21475 cumulative IPC: 0.22081 (Simulation time: 0 hr 17 min 17 sec) 
Heartbeat CPU  3 instructions:  124000000 cycles:  372089398 heartbeat IPC: 0.21566 cumulative IPC: 0.21314 (Simulation time: 0 hr 17 min 18 sec) 
[...]
Core_0_L1I_acc_level_5 0
Core_0_L1I_acc_level_6 0
Core_0_L1I_acc_level_7 0
Core_0_L1I_acc_level_8 0
Core_0_L1I_acc_level_9 0

Core_0_L2C_total_access 9608597
Core_0_L2C_total_hit 8387447
Core_0_L2C_total_miss 1221150
Core_0_L2C_loads 7782838
Core_0_L2C_load_hit 6902511
Core_0_L2C_load_miss 880327
Core_0_L2C_RFOs 758557
Core_0_L2C_RFO_hit 425652
Core_0_L2C_RFO_miss 332905
Core_0_L2C_prefetches 0
Core_0_L2C_prefetch_hit 0
Core_0_L2C_prefetch_miss 0
Core_0_L2C_writebacks 1067202
Core_0_L2C_writeback_hit 1059284
Core_0_L2C_writeback_miss 7918
Core_0_L2C_prefetch_requested 0
Core_0_L2C_prefetch_dropped 0
Core_0_L2C_prefetch_issued 0
Core_0_L2C_prefetch_filled 0
Core_0_L2C_prefetch_useful 0
Core_0_L2C_prefetch_useless 0
Core_0_L2C_prefetch_late 0
Core_0_L2C_average_miss_latency 125.36549

Core_0_L2C_rq_access 9109839
Core_0_L2C_rq_forward 0
Core_0_L2C_rq_merged 0
Core_0_L2C_rq_to_cache 9109086
Core_0_L2C_rq_full 0

Core_0_L2C_wq_access 1140279
Core_0_L2C_wq_forward 753
Core_0_L2C_wq_merged 0
Core_0_L2C_wq_to_cache 1140279
Core_0_L2C_wq_full 0

Core_0_L2C_pq_access 0
Core_0_L2C_pq_forward 0
Core_0_L2C_pq_merged 0
Core_0_L2C_pq_to_cache 0
Core_0_L2C_pq_full 0

Core_0_L2C_acc_epochs 193164
Core_0_L2C_acc_level_0 193164
Core_0_L2C_acc_level_1 0
Core_0_L2C_acc_level_2 0
Core_0_L2C_acc_level_3 0
Core_0_L2C_acc_level_4 0
Core_0_L2C_acc_level_5 0
Core_0_L2C_acc_level_6 0
Core_0_L2C_acc_level_7 0
Core_0_L2C_acc_level_8 0
Core_0_L2C_acc_level_9 0

Core_0_LLC_total_access 1636876
Core_0_LLC_total_hit 1045704
Core_0_LLC_total_miss 591172
Core_0_LLC_loads 880323
Core_0_LLC_load_hit 434812
Core_0_LLC_load_miss 445511
Core_0_LLC_RFOs 332895
Core_0_LLC_RFO_hit 225147
Core_0_LLC_RFO_miss 107748
Core_0_LLC_prefetches 0
Core_0_LLC_prefetch_hit 0
Core_0_LLC_prefetch_miss 0
Core_0_LLC_writebacks 423658
Core_0_LLC_writeback_hit 385745
Core_0_LLC_writeback_miss 37913
Core_0_LLC_prefetch_requested 0
Core_0_LLC_prefetch_dropped 0
Core_0_LLC_prefetch_issued 0
Core_0_LLC_prefetch_filled 0
Core_0_LLC_prefetch_useful 0
Core_0_LLC_prefetch_useless 0
Core_0_LLC_prefetch_late 0
Core_0_LLC_average_miss_latency 626.81699

Core_0_LLC_rq_access 4978951
Core_0_LLC_rq_forward 0
Core_0_LLC_rq_merged 0
Core_0_LLC_rq_to_cache 4978886
Core_0_LLC_rq_full 0

Core_0_LLC_wq_access 1651892
Core_0_LLC_wq_forward 65
Core_0_LLC_wq_merged 0
Core_0_LLC_wq_to_cache 1651892
Core_0_LLC_wq_full 0

Core_0_LLC_pq_access 0
Core_0_LLC_pq_forward 0
Core_0_LLC_pq_merged 0
Core_0_LLC_pq_to_cache 0
Core_0_LLC_pq_full 0

Core_0_LLC_acc_epochs 715757
Core_0_LLC_acc_level_0 715757
Core_0_LLC_acc_level_1 0
Core_0_LLC_acc_level_2 0
Core_0_LLC_acc_level_3 0
Core_0_LLC_acc_level_4 0
Core_0_LLC_acc_level_5 0
Core_0_LLC_acc_level_6 0
Core_0_LLC_acc_level_7 0
Core_0_LLC_acc_level_8 0
Core_0_LLC_acc_level_9 0

Core_0_major_page_fault 0
Core_0_minor_page_fault 17973

Core_1_instructions 150000002
Core_1_cycles 681561559
Core_1_IPC 0.22008

Core_1_branch_prediction_accuracy 97.29767
Core_1_branch_MPKI 4.98367
Core_1_average_ROB_occupancy_at_mispredict 87.13013

Core_1_L1D_total_access 23517725
Core_1_L1D_total_hit 20652014
Core_1_L1D_total_miss 2865711
Core_1_L1D_loads 13447382
Core_1_L1D_load_hit 11356148
Core_1_L1D_load_miss 2091234
Core_1_L1D_RFOs 10070343
Core_1_L1D_RFO_hit 9295866
Core_1_L1D_RFO_miss 774477
Core_1_L1D_prefetches 0
Core_1_L1D_prefetch_hit 0
Core_1_L1D_prefetch_miss 0
Core_1_L1D_writebacks 0
Core_1_L1D_writeback_hit 0
Core_1_L1D_writeback_miss 0
Core_1_L1D_prefetch_requested 0
Core_1_L1D_prefetch_dropped 0
Core_1_L1D_prefetch_issued 0
Core_1_L1D_prefetch_filled 0
Core_1_L1D_prefetch_useful 0
Core_1_L1D_prefetch_useless 0
Core_1_L1D_prefetch_late 0
Core_1_L1D_average_miss_latency 103.29525

Core_1_L1D_rq_access 26989363
Core_1_L1D_rq_forward 0
Core_1_L1D_rq_merged 12274940
Core_1_L1D_rq_to_cache 14711646
Core_1_L1D_rq_full 0

Core_1_L1D_wq_access 13486085
Core_1_L1D_wq_forward 2777
Core_1_L1D_wq_merged 39150
Core_1_L1D_wq_to_cache 13446935
Core_1_L1D_wq_full 0

Core_1_L1D_pq_access 0
Core_1_L1D_pq_forward 0
Core_1_L1D_pq_merged 0
Core_1_L1D_pq_to_cache 0
Core_1_L1D_pq_full 0

Core_1_L1D_acc_epochs 184837
Core_1_L1D_acc_level_0 184837
Core_1_L1D_acc_level_1 0
Core_1_L1D_acc_level_2 0
Core_1_L1D_acc_level_3 0
Core_1_L1D_acc_level_4 0
Core_1_L1D_acc_level_5 0
Core_1_L1D_acc_level_6 0
Core_1_L1D_acc_level_7 0
Core_1_L1D_acc_level_8 0
Core_1_L1D_acc_level_9 0

Core_1_L1I_total_access 32463990
Core_1_L1I_total_hit 26559476
Core_1_L1I_total_miss 5904514
Core_1_L1I_loads 32463990
Core_1_L1I_load_hit 26559476
Core_1_L1I_load_miss 5904514
Core_1_L1I_RFOs 0
Core_1_L1I_RFO_hit 0
Core_1_L1I_RFO_miss 0
Core_1_L1I_prefetches 0
Core_1_L1I_prefetch_hit 0
Core_1_L1I_prefetch_miss 0
Core_1_L1I_writebacks 0
Core_1_L1I_writeback_hit 0
Core_1_L1I_writeback_miss 0
Core_1_L1I_prefetch_requested 0
Core_1_L1I_prefetch_dropped 0
Core_1_L1I_prefetch_issued 0
Core_1_L1I_prefetch_filled 0
Core_1_L1I_prefetch_useful 0
Core_1_L1I_prefetch_useless 0
Core_1_L1I_prefetch_late 0
Core_1_L1I_average_miss_latency 88.97851

Core_1_L1I_rq_access 155549111
Core_1_L1I_rq_forward 0
Core_1_L1I_rq_merged 118291599
Core_1_L1I_rq_to_cache 37257512
Core_1_L1I_rq_full 0

Core_1_L1I_wq_access 0
Core_1_L1I_wq_forward 0
Core_1_L1I_wq_merged 0
Core_1_L1I_wq_to_cache 0
Core_1_L1I_wq_full 0

Core_1_L1I_pq_access 0
Core_1_L1I_pq_forward 0
Core_1_L1I_pq_merged 0
Core_1_L1I_pq_to_cache 0
Core_1_L1I_pq_full 0

Core_1_L1I_acc_epochs 184837
Core_1_L1I_acc_level_0 184837
Core_1_L1I_acc_level_1 0
Core_1_L1I_acc_level_2 0
Core_1_L1I_acc_level_3 0
Core_1_L1I_acc_level_4 0
Core_1_L1I_acc_level_5 0
Core_1_L1I_acc_level_6 0
Core_1_L1I_acc_level_7 0
Core_1_L1I_acc_level_8 0
Core_1_L1I_acc_level_9 0

Core_1_L2C_total_access 9851949
Core_1_L2C_total_hit 8662875
Core_1_L2C_total_miss 1189074
Core_1_L2C_loads 7995490
Core_1_L2C_load_hit 7147285
Core_1_L2C_load_miss 848205
Core_1_L2C_RFOs 774127
Core_1_L2C_RFO_hit 443257
Core_1_L2C_RFO_miss 330870
Core_1_L2C_prefetches 0
Core_1_L2C_prefetch_hit 0
Core_1_L2C_prefetch_miss 0
Core_1_L2C_writebacks 1082332
Core_1_L2C_writeback_hit 1072333
Core_1_L2C_writeback_miss 9999
Core_1_L2C_prefetch_requested 0
Core_1_L2C_prefetch_dropped 0
Core_1_L2C_prefetch_issued 0
Core_1_L2C_prefetch_filled 0
Core_1_L2C_prefetch_useful 0
Core_1_L2C_prefetch_useless 0
Core_1_L2C_prefetch_late 0
Core_1_L2C_average_miss_latency 118.76098

Core_1_L2C_rq_access 9123352
Core_1_L2C_rq_forward 0
Core_1_L2C_rq_merged 0
Core_1_L2C_rq_to_cache 9122678
Core_1_L2C_rq_full 0

Core_1_L2C_wq_access 1121096
Core_1_L2C_wq_forward 674
Core_1_L2C_wq_merged 0
Core_1_L2C_wq_to_cache 1121096
Core_1_L2C_wq_full 0

Core_1_L2C_pq_access 0
Core_1_L2C_pq_forward 0
Core_1_L2C_pq_merged 0
Core_1_L2C_pq_to_cache 0
Core_1_L2C_pq_full 0

Core_1_L2C_acc_epochs 184837
Core_1_L2C_acc_level_0 184837
Core_1_L2C_acc_level_1 0
Core_1_L2C_acc_level_2 0
Core_1_L2C_acc_level_3 0
Core_1_L2C_acc_level_4 0
Core_1_L2C_acc_level_5 0
Core_1_L2C_acc_level_6 0
Core_1_L2C_acc_level_7 0
Core_1_L2C_acc_level_8 0
Core_1_L2C_acc_level_9 0

Core_1_LLC_total_access 1602337
Core_1_LLC_total_hit 1063421
Core_1_LLC_total_miss 538916
Core_1_LLC_loads 848202
Core_1_LLC_load_hit 445648
Core_1_LLC_load_miss 402554
Core_1_LLC_RFOs 330864
Core_1_LLC_RFO_hit 228584
Core_1_LLC_RFO_miss 102280
Core_1_LLC_prefetches 0
Core_1_LLC_prefetch_hit 0
Core_1_LLC_prefetch_miss 0
Core_1_LLC_writebacks 423271
Core_1_LLC_writeback_hit 389189
Core_1_LLC_writeback_miss 34082
Core_1_LLC_prefetch_requested 0
Core_1_LLC_prefetch_dropped 0
Core_1_LLC_prefetch_issued 0
Core_1_LLC_prefetch_filled 0
Core_1_LLC_prefetch_useful 0
Core_1_LLC_prefetch_useless 0
Core_1_LLC_prefetch_late 0
Core_1_LLC_average_miss_latency 687.59632

Core_1_LLC_rq_access 4978951
Core_1_LLC_rq_forward 0
Core_1_LLC_rq_merged 0
Core_1_LLC_rq_to_cache 4978886
Core_1_LLC_rq_full 0

Core_1_LLC_wq_access 1651892
Core_1_LLC_wq_forward 65
Core_1_LLC_wq_merged 0
Core_1_LLC_wq_to_cache 1651892
Core_1_LLC_wq_full 0

Core_1_LLC_pq_access 0
Core_1_LLC_pq_forward 0
Core_1_LLC_pq_merged 0
Core_1_LLC_pq_to_cache 0
Core_1_LLC_pq_full 0

Core_1_LLC_acc_epochs 715757
Core_1_LLC_acc_level_0 715757
Core_1_LLC_acc_level_1 0
Core_1_LLC_acc_level_2 0
Core_1_LLC_acc_level_3 0
Core_1_LLC_acc_level_4 0
Core_1_LLC_acc_level_5 0
Core_1_LLC_acc_level_6 0
Core_1_LLC_acc_level_7 0
Core_1_LLC_acc_level_8 0
Core_1_LLC_acc_level_9 0

Core_1_major_page_fault 0
Core_1_minor_page_fault 17503

Core_2_instructions 150000000
Core_2_cycles 645881600
Core_2_IPC 0.23224

Core_2_branch_prediction_accuracy 97.37470
Core_2_branch_MPKI 4.08945
Core_2_average_ROB_occupancy_at_mispredict 86.58828

Core_2_L1D_total_access 17885321
Core_2_L1D_total_hit 15505795
Core_2_L1D_total_miss 2379526
Core_2_L1D_loads 11266999
Core_2_L1D_load_hit 9415999
Core_2_L1D_load_miss 1851000
Core_2_L1D_RFOs 6618322
Core_2_L1D_RFO_hit 6089796
Core_2_L1D_RFO_miss 528526
Core_2_L1D_prefetches 0
Core_2_L1D_prefetch_hit 0
Core_2_L1D_prefetch_miss 0
Core_2_L1D_writebacks 0
Core_2_L1D_writeback_hit 0
Core_2_L1D_writeback_miss 0
Core_2_L1D_prefetch_requested 0
Core_2_L1D_prefetch_dropped 0
Core_2_L1D_prefetch_issued 0
Core_2_L1D_prefetch_filled 0
Core_2_L1D_prefetch_useful 0
Core_2_L1D_prefetch_useless 0
Core_2_L1D_prefetch_late 0
Core_2_L1D_average_miss_latency 122.17174

Core_2_L1D_rq_access 27309929
Core_2_L1D_rq_forward 0
Core_2_L1D_rq_merged 12350635
Core_2_L1D_rq_to_cache 14955771
Core_2_L1D_rq_full 0

Core_2_L1D_wq_access 8772607
Core_2_L1D_wq_forward 3523
Core_2_L1D_wq_merged 27129
Core_2_L1D_wq_to_cache 8745478
Core_2_L1D_wq_full 0

Core_2_L1D_pq_access 0
Core_2_L1D_pq_forward 0
Core_2_L1D_pq_merged 0
Core_2_L1D_pq_to_cache 0
Core_2_L1D_pq_full 0

Core_2_L1D_acc_epochs 244375
Core_2_L1D_acc_level_0 244375
Core_2_L1D_acc_level_1 0
Core_2_L1D_acc_level_2 0
Core_2_L1D_acc_level_3 0
Core_2_L1D_acc_level_4 0
Core_2_L1D_acc_level_5 0
Core_2_L1D_acc_level_6 0
Core_2_L1D_acc_level_7 0
Core_2_L1D_acc_level_8 0
Core_2_L1D_acc_level_9 0

Core_2_L1I_total_access 29087273
Core_2_L1I_total_hit 25722632
Core_2_L1I_total_miss 3364641
Core_2_L1I_loads 29087273
Core_2_L1I_load_hit 25722632
Core_2_L1I_load_miss 3364641
Core_2_L1I_RFOs 0
Core_2_L1I_RFO_hit 0
Core_2_L1I_RFO_miss 0
Core_2_L1I_prefetches 0
Core_2_L1I_prefetch_hit 0
Core_2_L1I_prefetch_miss 0
Core_2_L1I_writebacks 0
Core_2_L1I_writeback_hit 0
Core_2_L1I_writeback_miss 0
Core_2_L1I_prefetch_requested 0
Core_2_L1I_prefetch_dropped 0
Core_2_L1I_prefetch_issued 0
Core_2_L1I_prefetch_filled 0
Core_2_L1I_prefetch_useful 0
Core_2_L1I_prefetch_useless 0
Core_2_L1I_prefetch_late 0
Core_2_L1I_average_miss_latency 88.68076

Core_2_L1I_rq_access 171733790
Core_2_L1I_rq_forward 0
Core_2_L1I_rq_merged 136833977
Core_2_L1I_rq_to_cache 34899813
Core_2_L1I_rq_full 0

Core_2_L1I_wq_access 0
Core_2_L1I_wq_forward 0
Core_2_L1I_wq_merged 0
Core_2_L1I_wq_to_cache 0
Core_2_L1I_wq_full 0

Core_2_L1I_pq_access 0
Core_2_L1I_pq_forward 0
Core_2_L1I_pq_merged 0
Core_2_L1I_pq_to_cache 0
Core_2_L1I_pq_full 0

Core_2_L1I_acc_epochs 244375
Core_2_L1I_acc_level_0 244375
Core_2_L1I_acc_level_1 0
Core_2_L1I_acc_level_2 0
Core_2_L1I_acc_level_3 0
Core_2_L1I_acc_level_4 0
Core_2_L1I_acc_level_5 0
Core_2_L1I_acc_level_6 0
Core_2_L1I_acc_level_7 0
Core_2_L1I_acc_level_8 0
Core_2_L1I_acc_level_9 0

Core_2_L2C_total_access 6639543
Core_2_L2C_total_hit 5519932
Core_2_L2C_total_miss 1119611
Core_2_L2C_loads 5215404
Core_2_L2C_load_hit 4266566
Core_2_L2C_load_miss 948838
Core_2_L2C_RFOs 528241
Core_2_L2C_RFO_hit 362965
Core_2_L2C_RFO_miss 165276
Core_2_L2C_prefetches 0
Core_2_L2C_prefetch_hit 0
Core_2_L2C_prefetch_miss 0
Core_2_L2C_writebacks 895898
Core_2_L2C_writeback_hit 890401
Core_2_L2C_writeback_miss 5497
Core_2_L2C_prefetch_requested 0
Core_2_L2C_prefetch_dropped 0
Core_2_L2C_prefetch_issued 0
Core_2_L2C_prefetch_filled 0
Core_2_L2C_prefetch_useful 0
Core_2_L2C_prefetch_useless 0
Core_2_L2C_prefetch_late 0
Core_2_L2C_average_miss_latency 149.26601

Core_2_L2C_rq_access 5958767
Core_2_L2C_rq_forward 0
Core_2_L2C_rq_merged 0
Core_2_L2C_rq_to_cache 5958242
Core_2_L2C_rq_full 0

Core_2_L2C_wq_access 924346
Core_2_L2C_wq_forward 525
Core_2_L2C_wq_merged 0
Core_2_L2C_wq_to_cache 924346
Core_2_L2C_wq_full 0

Core_2_L2C_pq_access 0
Core_2_L2C_pq_forward 0
Core_2_L2C_pq_merged 0
Core_2_L2C_pq_to_cache 0
Core_2_L2C_pq_full 0

Core_2_L2C_acc_epochs 244375
Core_2_L2C_acc_level_0 244375
Core_2_L2C_acc_level_1 0
Core_2_L2C_acc_level_2 0
Core_2_L2C_acc_level_3 0
Core_2_L2C_acc_level_4 0
Core_2_L2C_acc_level_5 0
Core_2_L2C_acc_level_6 0
Core_2_L2C_acc_level_7 0
Core_2_L2C_acc_level_8 0
Core_2_L2C_acc_level_9 0

Core_2_LLC_total_access 1404072
Core_2_LLC_total_hit 740436
Core_2_LLC_total_miss 663636
Core_2_LLC_loads 948827
Core_2_LLC_load_hit 359952
Core_2_LLC_load_miss 588875
Core_2_LLC_RFOs 165269
Core_2_LLC_RFO_hit 109153
Core_2_LLC_RFO_miss 56116
Core_2_LLC_prefetches 0
Core_2_LLC_prefetch_hit 0
Core_2_LLC_prefetch_miss 0
Core_2_LLC_writebacks 289976
Core_2_LLC_writeback_hit 271331
Core_2_LLC_writeback_miss 18645
Core_2_LLC_prefetch_requested 0
Core_2_LLC_prefetch_dropped 0
Core_2_LLC_prefetch_issued 0
Core_2_LLC_prefetch_filled 0
Core_2_LLC_prefetch_useful 0
Core_2_LLC_prefetch_useless 0
Core_2_LLC_prefetch_late 0
Core_2_LLC_average_miss_latency 558.37335

Core_2_LLC_rq_access 4978951
Core_2_LLC_rq_forward 0
Core_2_LLC_rq_merged 0
Core_2_LLC_rq_to_cache 4978886
Core_2_LLC_rq_full 0

Core_2_LLC_wq_access 1651892
Core_2_LLC_wq_forward 65
Core_2_LLC_wq_merged 0
Core_2_LLC_wq_to_cache 1651892
Core_2_LLC_wq_full 0

Core_2_LLC_pq_access 0
Core_2_LLC_pq_forward 0
Core_2_LLC_pq_merged 0
Core_2_LLC_pq_to_cache 0
Core_2_LLC_pq_full 0

Core_2_LLC_acc_epochs 715757
Core_2_LLC_acc_level_0 715757
Core_2_LLC_acc_level_1 0
Core_2_LLC_acc_level_2 0
Core_2_LLC_acc_level_3 0
Core_2_LLC_acc_level_4 0
Core_2_LLC_acc_level_5 0
Core_2_LLC_acc_level_6 0
Core_2_LLC_acc_level_7 0
Core_2_LLC_acc_level_8 0
Core_2_LLC_acc_level_9 0

Core_2_major_page_fault 0
Core_2_minor_page_fault 15290

Core_3_instructions 150000001
Core_3_cycles 707345612
Core_3_IPC 0.21206

Core_3_branch_prediction_accuracy 97.21754
Core_3_branch_MPKI 5.20995
Core_3_average_ROB_occupancy_at_mispredict 87.64939

Core_3_L1D_total_access 24577087
Core_3_L1D_total_hit 21606436
Core_3_L1D_total_miss 2970651
Core_3_L1D_loads 14015032
Core_3_L1D_load_hit 11872118
Core_3_L1D_load_miss 2142914
Core_3_L1D_RFOs 10562055
Core_3_L1D_RFO_hit 9734318
Core_3_L1D_RFO_miss 827737
Core_3_L1D_prefetches 0
Core_3_L1D_prefetch_hit 0
Core_3_L1D_prefetch_miss 0
Core_3_L1D_writebacks 0
Core_3_L1D_writeback_hit 0
Core_3_L1D_writeback_miss 0
Core_3_L1D_prefetch_requested 0
Core_3_L1D_prefetch_dropped 0
Core_3_L1D_prefetch_issued 0
Core_3_L1D_prefetch_filled 0
Core_3_L1D_prefetch_useful 0
Core_3_L1D_prefetch_useless 0
Core_3_L1D_prefetch_late 0
Core_3_L1D_average_miss_latency 100.60599

Core_3_L1D_rq_access 26504484
Core_3_L1D_rq_forward 0
Core_3_L1D_rq_merged 11980816
Core_3_L1D_rq_to_cache 14520598
Core_3_L1D_rq_full 0

Core_3_L1D_wq_access 13699515
Core_3_L1D_wq_forward 3070
Core_3_L1D_wq_merged 40359
Core_3_L1D_wq_to_cache 13659156
Core_3_L1D_wq_full 0

Core_3_L1D_pq_access 0
Core_3_L1D_pq_forward 0
Core_3_L1D_pq_merged 0
Core_3_L1D_pq_to_cache 0
Core_3_L1D_pq_full 0

Core_3_L1D_acc_epochs 177456
Core_3_L1D_acc_level_0 177456
Core_3_L1D_acc_level_1 0
Core_3_L1D_acc_level_2 0
Core_3_L1D_acc_level_3 0
Core_3_L1D_acc_level_4 0
Core_3_L1D_acc_level_5 0
Core_3_L1D_acc_level_6 0
Core_3_L1D_acc_level_7 0
Core_3_L1D_acc_level_8 0
Core_3_L1D_acc_level_9 0

Core_3_L1I_total_access 32750986
Core_3_L1I_total_hit 26507533
Core_3_L1I_total_miss 6243453
Core_3_L1I_loads 32750986
Core_3_L1I_load_hit 26507533
Core_3_L1I_load_miss 6243453
Core_3_L1I_RFOs 0
Core_3_L1I_RFO_hit 0
Core_3_L1I_RFO_miss 0
Core_3_L1I_prefetches 0
Core_3_L1I_prefetch_hit 0
Core_3_L1I_prefetch_miss 0
Core_3_L1I_writebacks 0
Core_3_L1I_writeback_hit 0
Core_3_L1I_writeback_miss 0
Core_3_L1I_prefetch_requested 0
Core_3_L1I_prefetch_dropped 0
Core_3_L1I_prefetch_issued 0
Core_3_L1I_prefetch_filled 0
Core_3_L1I_prefetch_useful 0
Core_3_L1I_prefetch_useless 0
Core_3_L1I_prefetch_late 0
Core_3_L1I_average_miss_latency 85.29563

Core_3_L1I_rq_access 150000247
Core_3_L1I_rq_forward 0
Core_3_L1I_rq_merged 113615821
Core_3_L1I_rq_to_cache 36384426
Core_3_L1I_rq_full 0

Core_3_L1I_wq_access 0
Core_3_L1I_wq_forward 0
Core_3_L1I_wq_merged 0
Core_3_L1I_wq_to_cache 0
Core_3_L1I_wq_full 0

Core_3_L1I_pq_access 0
Core_3_L1I_pq_forward 0
Core_3_L1I_pq_merged 0
Core_3_L1I_pq_to_cache 0
Core_3_L1I_pq_full 0

Core_3_L1I_acc_epochs 177456
Core_3_L1I_acc_level_0 177456
Core_3_L1I_acc_level_1 0
Core_3_L1I_acc_level_2 0
Core_3_L1I_acc_level_3 0
Core_3_L1I_acc_level_4 0
Core_3_L1I_acc_level_5 0
Core_3_L1I_acc_level_6 0
Core_3_L1I_acc_level_7 0
Core_3_L1I_acc_level_8 0
Core_3_L1I_acc_level_9 0

Core_3_L2C_total_access 10362498
Core_3_L2C_total_hit 9146991
Core_3_L2C_total_miss 1215507
Core_3_L2C_loads 8386147
Core_3_L2C_load_hit 7543189
Core_3_L2C_load_miss 842958
Core_3_L2C_RFOs 827326
Core_3_L2C_RFO_hit 464561
Core_3_L2C_RFO_miss 362765
Core_3_L2C_prefetches 0
Core_3_L2C_prefetch_hit 0
Core_3_L2C_prefetch_miss 0
Core_3_L2C_writebacks 1149025
Core_3_L2C_writeback_hit 1139241
Core_3_L2C_writeback_miss 9784
Core_3_L2C_prefetch_requested 0
Core_3_L2C_prefetch_dropped 0
Core_3_L2C_prefetch_issued 0
Core_3_L2C_prefetch_filled 0
Core_3_L2C_prefetch_useful 0
Core_3_L2C_prefetch_useless 0
Core_3_L2C_prefetch_late 0
Core_3_L2C_average_miss_latency 117.39838

Core_3_L2C_rq_access 9214104
Core_3_L2C_rq_forward 0
Core_3_L2C_rq_merged 0
Core_3_L2C_rq_to_cache 9213473
Core_3_L2C_rq_full 0

Core_3_L2C_wq_access 1149025
Core_3_L2C_wq_forward 631
Core_3_L2C_wq_merged 0
Core_3_L2C_wq_to_cache 1149025
Core_3_L2C_wq_full 0

Core_3_L2C_pq_access 0
Core_3_L2C_pq_forward 0
Core_3_L2C_pq_merged 0
Core_3_L2C_pq_to_cache 0
Core_3_L2C_pq_full 0

Core_3_L2C_acc_epochs 177456
Core_3_L2C_acc_level_0 177456
Core_3_L2C_acc_level_1 0
Core_3_L2C_acc_level_2 0
Core_3_L2C_acc_level_3 0
Core_3_L2C_acc_level_4 0
Core_3_L2C_acc_level_5 0
Core_3_L2C_acc_level_6 0
Core_3_L2C_acc_level_7 0
Core_3_L2C_acc_level_8 0
Core_3_L2C_acc_level_9 0

Core_3_LLC_total_access 1663068
Core_3_LLC_total_hit 1122722
Core_3_LLC_total_miss 540346
Core_3_LLC_loads 842953
Core_3_LLC_load_hit 470252
Core_3_LLC_load_miss 372701
Core_3_LLC_RFOs 362747
Core_3_LLC_RFO_hit 241446
Core_3_LLC_RFO_miss 121301
Core_3_LLC_prefetches 0
Core_3_LLC_prefetch_hit 0
Core_3_LLC_prefetch_miss 0
Core_3_LLC_writebacks 457368
Core_3_LLC_writeback_hit 411024
Core_3_LLC_writeback_miss 46344
Core_3_LLC_prefetch_requested 0
Core_3_LLC_prefetch_dropped 0
Core_3_LLC_prefetch_issued 0
Core_3_LLC_prefetch_filled 0
Core_3_LLC_prefetch_useful 0
Core_3_LLC_prefetch_useless 0
Core_3_LLC_prefetch_late 0
Core_3_LLC_average_miss_latency 685.77662

Core_3_LLC_rq_access 4978951
Core_3_LLC_rq_forward 0
Core_3_LLC_rq_merged 0
Core_3_LLC_rq_to_cache 4978886
Core_3_LLC_rq_full 0

Core_3_LLC_wq_access 1651892
Core_3_LLC_wq_forward 65
Core_3_LLC_wq_merged 0
Core_3_LLC_wq_to_cache 1651892
Core_3_LLC_wq_full 0

Core_3_LLC_pq_access 0
Core_3_LLC_pq_forward 0
Core_3_LLC_pq_merged 0
Core_3_LLC_pq_to_cache 0
Core_3_LLC_pq_full 0

Core_3_LLC_acc_epochs 715757
Core_3_LLC_acc_level_0 715757
Core_3_LLC_acc_level_1 0
Core_3_LLC_acc_level_2 0
Core_3_LLC_acc_level_3 0
Core_3_LLC_acc_level_4 0
Core_3_LLC_acc_level_5 0
Core_3_LLC_acc_level_6 0
Core_3_LLC_acc_level_7 0
Core_3_LLC_acc_level_8 0
Core_3_LLC_acc_level_9 0

Core_3_major_page_fault 0
Core_3_minor_page_fault 17867

Channel_0_RQ_row_buffer_hit 423405
Channel_0_RQ_row_buffer_miss 765188
Channel_0_WQ_row_buffer_hit 45178
Channel_0_WQ_row_buffer_miss 188039
Channel_0_WQ_full 0
Channel_0_dbus_congested 190859

Channel_1_RQ_row_buffer_hit 423554
Channel_1_RQ_row_buffer_miss 764848
Channel_1_WQ_row_buffer_hit 44890
Channel_1_WQ_row_buffer_miss 187947
Channel_1_WQ_full 0
Channel_1_dbus_congested 188450

avg_congested_cycle 9

DRAM_bw_pochs 2863025
DRAM_bw_level_0 2769219
DRAM_bw_level_1 83119
DRAM_bw_level_2 10241
DRAM_bw_level_3 446
