*************************************************
   ChampSim Multicore Out-of-Order Simulator
   Last compiled: Mar 31 2025 20:14:32
*************************************************
parsing config file: /data3/config/nopref.ini

trace_0 /data3/STREAMING/traces/streaming_phase3_core0.trace.xz
trace_1 /data3/STREAMING/traces/streaming_phase3_core1.trace.xz
trace_2 /data3/STREAMING/traces/streaming_phase3_core2.trace.xz
trace_3 /data3/STREAMING/traces/streaming_phase3_core3.trace.xz
adding L2C_PREFETCHER: NONE
adding L2C_PREFETCHER: NONE
adding L2C_PREFETCHER: NONE
adding L2C_PREFETCHER: NONE
Initialize SHIP state
warmup_instructions 50000000
simulation_instructions 150000000
champsim_seed 8858
measure_ipc 0
measure_ipc_epoch 1000
measure_dram_bw 1
measure_dram_bw_epoch 256
measure_cache_acc 1
measure_cache_acc_epoch 1024
l1d_perfect 0
l2c_perfect 0
llc_perfect 0
l1d_semi_perfect 0
l2c_semi_perfect 0
llc_semi_perfect 0
semi_perfect_cache_page_buffer_size 64

num_cpus 4
cpu_freq 4000
dram_io_freq 2400
page_size 4096
block_size 64
max_read_per_cycle 8
max_fill_per_cycle 1
dram_channels 2
log2_dram_channels 1
dram_ranks 1
dram_banks 8
dram_rows 65536
dram_columns 128
dram_row_size 8
dram_size 8192
dram_pages 2097152

fetch_width 6
decode_width 6
exec_width 4
lq_width 2
sq_width 2
retire_width 4
scheduler_size 128
branch_mispredict_penalty 20
rob_size 256
lq_size 72
sq_size 56
num_instr_destinations_sparc 4
num_instr_destinations 2
num_instr_sources 4

itlb_set 16
itlb_way 8
itlb_rq_size 16
itlb_wq_size 16
itlb_pq_size 0
itlb_mshr_size 8
itlb_latency 1

dtlb_set 16
dtlb_way 4
dtlb_rq_size 16
dtlb_wq_size 16
dtlb_pq_size 0
dtlb_mshr_size 8
dtlb_latency 1

stlb_set 128
stlb_way 12
stlb_rq_size 32
stlb_wq_size 32
stlb_pq_size 0
stlb_mshr_size 16
stlb_latency 8

l1i_size 32
l1i_set 64
l1i_way 8
l1i_rq_size 64
l1i_wq_size 64
l1i_pq_size 8
l1i_mshr_size 8
l1i_latency 1

l1d_size 32
l1d_set 64
l1d_way 8
l1d_rq_size 64
l1d_wq_size 64
l1d_pq_size 8
l1d_mshr_size 16
l1d_latency 4

l2c_size 256
l2c_set 512
l2c_way 8
l2c_rq_size 32
l2c_wq_size 32
l2c_pq_size 32
l2c_mshr_size 32
l2c_latency 10

llc_size 8192
llc_set 8192
llc_way 16
llc_rq_size 128
llc_wq_size 128
llc_pq_size 128
llc_mshr_size 256
llc_latency 20

dram_channel_width 8
dram_wq_size 64
dram_rq_size 64
tRP 15
tRCD 15
tCAS 12.5
dram_dbus_turn_around_time 30
dram_write_high_wm 56
dram_write_low_wm 48
min_dram_writes_per_switch 16
dram_mtps 2400
dram_dbus_return_time 13


Heartbeat CPU  3 instructions:    1000000 cycles:     641372 heartbeat IPC: 1.55916 cumulative IPC: 1.55916 (Simulation time: 0 hr 0 min 6 sec) 
Heartbeat CPU  0 instructions:    1000000 cycles:     657302 heartbeat IPC: 1.52137 cumulative IPC: 1.52137 (Simulation time: 0 hr 0 min 6 sec) 
Heartbeat CPU  1 instructions:    1000001 cycles:     674114 heartbeat IPC: 1.48343 cumulative IPC: 1.48343 (Simulation time: 0 hr 0 min 6 sec) 
Heartbeat CPU  2 instructions:    1000000 cycles:     762846 heartbeat IPC: 1.31088 cumulative IPC: 1.31088 (Simulation time: 0 hr 0 min 7 sec) 
Heartbeat CPU  3 instructions:    2000000 cycles:    1209929 heartbeat IPC: 1.75884 cumulative IPC: 1.65299 (Simulation time: 0 hr 0 min 12 sec) 
Heartbeat CPU  1 instructions:    2000001 cycles:    1222446 heartbeat IPC: 1.82371 cumulative IPC: 1.63606 (Simulation time: 0 hr 0 min 12 sec) 
Heartbeat CPU  0 instructions:    2000002 cycles:    1225081 heartbeat IPC: 1.76125 cumulative IPC: 1.63255 (Simulation time: 0 hr 0 min 12 sec) 
Heartbeat CPU  2 instructions:    2000002 cycles:    1396564 heartbeat IPC: 1.57799 cumulative IPC: 1.43209 (Simulation time: 0 hr 0 min 14 sec) 
Heartbeat CPU  1 instructions:    3000003 cycles:    1744946 heartbeat IPC: 1.91388 cumulative IPC: 1.71925 (Simulation time: 0 hr 0 min 18 sec) 
Heartbeat CPU  3 instructions:    3000002 cycles:    1753360 heartbeat IPC: 1.84016 cumulative IPC: 1.71100 (Simulation time: 0 hr 0 min 18 sec) 
Heartbeat CPU  0 instructions:    3000002 cycles:    1775120 heartbeat IPC: 1.81805 cumulative IPC: 1.69003 (Simulation time: 0 hr 0 min 19 sec) 
Heartbeat CPU  2 instructions:    3000002 cycles:    2018502 heartbeat IPC: 1.60788 cumulative IPC: 1.48625 (Simulation time: 0 hr 0 min 21 sec) 
Heartbeat CPU  1 instructions:    4000000 cycles:    2276080 heartbeat IPC: 1.88276 cumulative IPC: 1.75741 (Simulation time: 0 hr 0 min 24 sec) 
Heartbeat CPU  3 instructions:    4000000 cycles:    2291631 heartbeat IPC: 1.85780 cumulative IPC: 1.74548 (Simulation time: 0 hr 0 min 25 sec) 
Heartbeat CPU  0 instructions:    4000000 cycles:    2323523 heartbeat IPC: 1.82347 cumulative IPC: 1.72152 (Simulation time: 0 hr 0 min 25 sec) 
Heartbeat CPU  2 instructions:    4000000 cycles:    2628601 heartbeat IPC: 1.63907 cumulative IPC: 1.52172 (Simulation time: 0 hr 0 min 29 sec) 
Heartbeat CPU  1 instructions:    5000000 cycles:    2812753 heartbeat IPC: 1.86333 cumulative IPC: 1.77762 (Simulation time: 0 hr 0 min 31 sec) 
Heartbeat CPU  3 instructions:    5000003 cycles:    2818905 heartbeat IPC: 1.89655 cumulative IPC: 1.77374 (Simulation time: 0 hr 0 min 31 sec) 
Heartbeat CPU  0 instructions:    5000000 cycles:    2845092 heartbeat IPC: 1.91729 cumulative IPC: 1.75741 (Simulation time: 0 hr 0 min 31 sec) 
Heartbeat CPU  2 instructions:    5000000 cycles:    3220500 heartbeat IPC: 1.68948 cumulative IPC: 1.55255 (Simulation time: 0 hr 0 min 36 sec) 
Heartbeat CPU  3 instructions:    6000002 cycles:    3311282 heartbeat IPC: 2.03096 cumulative IPC: 1.81199 (Simulation time: 0 hr 0 min 37 sec) 
Heartbeat CPU  0 instructions:    6000000 cycles:    3350789 heartbeat IPC: 1.97747 cumulative IPC: 1.79062 (Simulation time: 0 hr 0 min 38 sec) 
Heartbeat CPU  1 instructions:    6000001 cycles:    3356783 heartbeat IPC: 1.83814 cumulative IPC: 1.78743 (Simulation time: 0 hr 0 min 38 sec) 
Heartbeat CPU  2 instructions:    6000003 cycles:    3813638 heartbeat IPC: 1.68595 cumulative IPC: 1.57330 (Simulation time: 0 hr 0 min 43 sec) 
Heartbeat CPU  3 instructions:    7000002 cycles:    3819027 heartbeat IPC: 1.96949 cumulative IPC: 1.83293 (Simulation time: 0 hr 0 min 44 sec) 
Heartbeat CPU  0 instructions:    7000003 cycles:    3864055 heartbeat IPC: 1.94831 cumulative IPC: 1.81157 (Simulation time: 0 hr 0 min 44 sec) 
Heartbeat CPU  1 instructions:    7000001 cycles:    3894663 heartbeat IPC: 1.85915 cumulative IPC: 1.79733 (Simulation time: 0 hr 0 min 44 sec) 
Heartbeat CPU  3 instructions:    8000000 cycles:    4332978 heartbeat IPC: 1.94571 cumulative IPC: 1.84631 (Simulation time: 0 hr 0 min 50 sec) 
Heartbeat CPU  0 instructions:    8000000 cycles:    4386358 heartbeat IPC: 1.91459 cumulative IPC: 1.82384 (Simulation time: 0 hr 0 min 50 sec) 
Heartbeat CPU  1 instructions:    8000000 cycles:    4420941 heartbeat IPC: 1.90013 cumulative IPC: 1.80957 (Simulation time: 0 hr 0 min 51 sec) 
Heartbeat CPU  2 instructions:    7000001 cycles:    4435472 heartbeat IPC: 1.60814 cumulative IPC: 1.57819 (Simulation time: 0 hr 0 min 51 sec) 
Heartbeat CPU  3 instructions:    9000002 cycles:    4851307 heartbeat IPC: 1.92928 cumulative IPC: 1.85517 (Simulation time: 0 hr 0 min 56 sec) 
Heartbeat CPU  0 instructions:    9000003 cycles:    4940338 heartbeat IPC: 1.80512 cumulative IPC: 1.82174 (Simulation time: 0 hr 0 min 57 sec) 
Heartbeat CPU  1 instructions:    9000001 cycles:    4952676 heartbeat IPC: 1.88064 cumulative IPC: 1.81720 (Simulation time: 0 hr 0 min 57 sec) 
Heartbeat CPU  2 instructions:    8000000 cycles:    5041644 heartbeat IPC: 1.64970 cumulative IPC: 1.58678 (Simulation time: 0 hr 0 min 58 sec) 
Heartbeat CPU  3 instructions:   10000001 cycles:    5394919 heartbeat IPC: 1.83955 cumulative IPC: 1.85360 (Simulation time: 0 hr 1 min 2 sec) 
Heartbeat CPU  0 instructions:   10000002 cycles:    5475299 heartbeat IPC: 1.86929 cumulative IPC: 1.82638 (Simulation time: 0 hr 1 min 3 sec) 
Heartbeat CPU  1 instructions:   10000001 cycles:    5490958 heartbeat IPC: 1.85776 cumulative IPC: 1.82118 (Simulation time: 0 hr 1 min 4 sec) 
Heartbeat CPU  2 instructions:    9000000 cycles:    5607914 heartbeat IPC: 1.76594 cumulative IPC: 1.60487 (Simulation time: 0 hr 1 min 5 sec) 
Heartbeat CPU  3 instructions:   11000002 cycles:    5937031 heartbeat IPC: 1.84464 cumulative IPC: 1.85278 (Simulation time: 0 hr 1 min 9 sec) 
Heartbeat CPU  0 instructions:   11000000 cycles:    5945967 heartbeat IPC: 2.12464 cumulative IPC: 1.84999 (Simulation time: 0 hr 1 min 9 sec) 
Heartbeat CPU  1 instructions:   11000000 cycles:    6012501 heartbeat IPC: 1.91739 cumulative IPC: 1.82952 (Simulation time: 0 hr 1 min 10 sec) 
Heartbeat CPU  2 instructions:   10000003 cycles:    6169699 heartbeat IPC: 1.78005 cumulative IPC: 1.62083 (Simulation time: 0 hr 1 min 12 sec) 
Heartbeat CPU  3 instructions:   12000000 cycles:    6451770 heartbeat IPC: 1.94273 cumulative IPC: 1.85995 (Simulation time: 0 hr 1 min 16 sec) 
Heartbeat CPU  0 instructions:   12000000 cycles:    6460528 heartbeat IPC: 1.94340 cumulative IPC: 1.85743 (Simulation time: 0 hr 1 min 16 sec) 
Heartbeat CPU  2 instructions:   11000003 cycles:    6490364 heartbeat IPC: 3.11852 cumulative IPC: 1.69482 (Simulation time: 0 hr 1 min 17 sec) 
Heartbeat CPU  1 instructions:   12000000 cycles:    6503289 heartbeat IPC: 2.03754 cumulative IPC: 1.84522 (Simulation time: 0 hr 1 min 17 sec) 
Heartbeat CPU  2 instructions:   12000000 cycles:    6998338 heartbeat IPC: 1.96860 cumulative IPC: 1.71469 (Simulation time: 0 hr 1 min 23 sec) 
Heartbeat CPU  0 instructions:   13000003 cycles:    7002558 heartbeat IPC: 1.84492 cumulative IPC: 1.85646 (Simulation time: 0 hr 1 min 23 sec) 
Heartbeat CPU  1 instructions:   13000000 cycles:    7002971 heartbeat IPC: 2.00127 cumulative IPC: 1.85635 (Simulation time: 0 hr 1 min 23 sec) 
Heartbeat CPU  3 instructions:   13000000 cycles:    7004109 heartbeat IPC: 1.81048 cumulative IPC: 1.85605 (Simulation time: 0 hr 1 min 23 sec) 
Heartbeat CPU  3 instructions:   14000003 cycles:    7538104 heartbeat IPC: 1.87268 cumulative IPC: 1.85723 (Simulation time: 0 hr 1 min 30 sec) 
Heartbeat CPU  0 instructions:   14000003 cycles:    7539180 heartbeat IPC: 1.86351 cumulative IPC: 1.85697 (Simulation time: 0 hr 1 min 30 sec) 
Heartbeat CPU  1 instructions:   14000001 cycles:    7545617 heartbeat IPC: 1.84282 cumulative IPC: 1.85538 (Simulation time: 0 hr 1 min 30 sec) 
Heartbeat CPU  2 instructions:   13000001 cycles:    7560964 heartbeat IPC: 1.77738 cumulative IPC: 1.71936 (Simulation time: 0 hr 1 min 30 sec) 
Heartbeat CPU  0 instructions:   15000001 cycles:    8053394 heartbeat IPC: 1.94471 cumulative IPC: 1.86257 (Simulation time: 0 hr 1 min 36 sec) 
Heartbeat CPU  1 instructions:   15000003 cycles:    8081649 heartbeat IPC: 1.86556 cumulative IPC: 1.85606 (Simulation time: 0 hr 1 min 36 sec) 
Heartbeat CPU  3 instructions:   15000003 cycles:    8108338 heartbeat IPC: 1.75367 cumulative IPC: 1.84995 (Simulation time: 0 hr 1 min 36 sec) 
Heartbeat CPU  2 instructions:   14000002 cycles:    8141021 heartbeat IPC: 1.72397 cumulative IPC: 1.71969 (Simulation time: 0 hr 1 min 37 sec) 
Heartbeat CPU  0 instructions:   16000000 cycles:    8586576 heartbeat IPC: 1.87553 cumulative IPC: 1.86337 (Simulation time: 0 hr 1 min 42 sec) 
Heartbeat CPU  1 instructions:   16000000 cycles:    8624181 heartbeat IPC: 1.84320 cumulative IPC: 1.85525 (Simulation time: 0 hr 1 min 43 sec) 
Heartbeat CPU  3 instructions:   16000000 cycles:    8645102 heartbeat IPC: 1.86301 cumulative IPC: 1.85076 (Simulation time: 0 hr 1 min 43 sec) 
Heartbeat CPU  2 instructions:   15000002 cycles:    8704442 heartbeat IPC: 1.77487 cumulative IPC: 1.72326 (Simulation time: 0 hr 1 min 44 sec) 
Heartbeat CPU  0 instructions:   17000001 cycles:    9089638 heartbeat IPC: 1.98783 cumulative IPC: 1.87026 (Simulation time: 0 hr 1 min 48 sec) 
Heartbeat CPU  1 instructions:   17000003 cycles:    9168579 heartbeat IPC: 1.83690 cumulative IPC: 1.85416 (Simulation time: 0 hr 1 min 49 sec) 
Heartbeat CPU  3 instructions:   17000002 cycles:    9191248 heartbeat IPC: 1.83102 cumulative IPC: 1.84959 (Simulation time: 0 hr 1 min 50 sec) 
Heartbeat CPU  2 instructions:   16000000 cycles:    9259061 heartbeat IPC: 1.80304 cumulative IPC: 1.72804 (Simulation time: 0 hr 1 min 50 sec) 
Heartbeat CPU  0 instructions:   18000001 cycles:    9635561 heartbeat IPC: 1.83176 cumulative IPC: 1.86808 (Simulation time: 0 hr 1 min 55 sec) 
Heartbeat CPU  1 instructions:   18000001 cycles:    9690830 heartbeat IPC: 1.91478 cumulative IPC: 1.85743 (Simulation time: 0 hr 1 min 56 sec) 
Heartbeat CPU  3 instructions:   18000001 cycles:    9707169 heartbeat IPC: 1.93828 cumulative IPC: 1.85430 (Simulation time: 0 hr 1 min 56 sec) 
Heartbeat CPU  2 instructions:   17000002 cycles:    9805078 heartbeat IPC: 1.83145 cumulative IPC: 1.73380 (Simulation time: 0 hr 1 min 57 sec) 
Heartbeat CPU  0 instructions:   19000002 cycles:   10145705 heartbeat IPC: 1.96023 cumulative IPC: 1.87271 (Simulation time: 0 hr 2 min 1 sec) 
Heartbeat CPU  1 instructions:   19000000 cycles:   10224386 heartbeat IPC: 1.87422 cumulative IPC: 1.85830 (Simulation time: 0 hr 2 min 2 sec) 
Heartbeat CPU  3 instructions:   19000000 cycles:   10247788 heartbeat IPC: 1.84973 cumulative IPC: 1.85406 (Simulation time: 0 hr 2 min 3 sec) 
Heartbeat CPU  2 instructions:   18000003 cycles:   10363162 heartbeat IPC: 1.79185 cumulative IPC: 1.73692 (Simulation time: 0 hr 2 min 4 sec) 
Heartbeat CPU  0 instructions:   20000000 cycles:   10651731 heartbeat IPC: 1.97618 cumulative IPC: 1.87763 (Simulation time: 0 hr 2 min 8 sec) 
Heartbeat CPU  1 instructions:   20000000 cycles:   10731563 heartbeat IPC: 1.97170 cumulative IPC: 1.86366 (Simulation time: 0 hr 2 min 9 sec) 
Heartbeat CPU  3 instructions:   20000000 cycles:   10787566 heartbeat IPC: 1.85261 cumulative IPC: 1.85399 (Simulation time: 0 hr 2 min 9 sec) 
Heartbeat CPU  2 instructions:   19000000 cycles:   10903508 heartbeat IPC: 1.85066 cumulative IPC: 1.74256 (Simulation time: 0 hr 2 min 11 sec) 
Heartbeat CPU  0 instructions:   21000003 cycles:   11233272 heartbeat IPC: 1.71957 cumulative IPC: 1.86945 (Simulation time: 0 hr 2 min 14 sec) 
Heartbeat CPU  1 instructions:   21000002 cycles:   11263404 heartbeat IPC: 1.88026 cumulative IPC: 1.86445 (Simulation time: 0 hr 2 min 15 sec) 
Heartbeat CPU  3 instructions:   21000001 cycles:   11424213 heartbeat IPC: 1.57073 cumulative IPC: 1.83820 (Simulation time: 0 hr 2 min 17 sec) 
Heartbeat CPU  2 instructions:   20000000 cycles:   11468064 heartbeat IPC: 1.77130 cumulative IPC: 1.74397 (Simulation time: 0 hr 2 min 17 sec) 
Heartbeat CPU  0 instructions:   22000002 cycles:   11745247 heartbeat IPC: 1.95322 cumulative IPC: 1.87310 (Simulation time: 0 hr 2 min 21 sec) 
Heartbeat CPU  1 instructions:   22000001 cycles:   11786346 heartbeat IPC: 1.91226 cumulative IPC: 1.86657 (Simulation time: 0 hr 2 min 21 sec) 
Heartbeat CPU  3 instructions:   22000003 cycles:   11938616 heartbeat IPC: 1.94401 cumulative IPC: 1.84276 (Simulation time: 0 hr 2 min 23 sec) 
Heartbeat CPU  2 instructions:   21000002 cycles:   12022276 heartbeat IPC: 1.80437 cumulative IPC: 1.74676 (Simulation time: 0 hr 2 min 24 sec) 
Heartbeat CPU  0 instructions:   23000000 cycles:   12283220 heartbeat IPC: 1.85883 cumulative IPC: 1.87247 (Simulation time: 0 hr 2 min 27 sec) 
Heartbeat CPU  1 instructions:   23000000 cycles:   12426928 heartbeat IPC: 1.56108 cumulative IPC: 1.85082 (Simulation time: 0 hr 2 min 29 sec) 
Heartbeat CPU  3 instructions:   23000000 cycles:   12473619 heartbeat IPC: 1.86914 cumulative IPC: 1.84389 (Simulation time: 0 hr 2 min 29 sec) 
Heartbeat CPU  2 instructions:   22000002 cycles:   12588974 heartbeat IPC: 1.76461 cumulative IPC: 1.74756 (Simulation time: 0 hr 2 min 31 sec) 
Heartbeat CPU  0 instructions:   24000000 cycles:   12846383 heartbeat IPC: 1.77568 cumulative IPC: 1.86823 (Simulation time: 0 hr 2 min 34 sec) 
Heartbeat CPU  1 instructions:   24000000 cycles:   12960792 heartbeat IPC: 1.87314 cumulative IPC: 1.85174 (Simulation time: 0 hr 2 min 35 sec) 
Heartbeat CPU  3 instructions:   24000000 cycles:   12998623 heartbeat IPC: 1.90475 cumulative IPC: 1.84635 (Simulation time: 0 hr 2 min 35 sec) 
Heartbeat CPU  2 instructions:   23000000 cycles:   13169563 heartbeat IPC: 1.72239 cumulative IPC: 1.74645 (Simulation time: 0 hr 2 min 37 sec) 
Heartbeat CPU  0 instructions:   25000002 cycles:   13406457 heartbeat IPC: 1.78548 cumulative IPC: 1.86477 (Simulation time: 0 hr 2 min 40 sec) 
Heartbeat CPU  1 instructions:   25000000 cycles:   13492985 heartbeat IPC: 1.87902 cumulative IPC: 1.85281 (Simulation time: 0 hr 2 min 41 sec) 
Heartbeat CPU  3 instructions:   25000003 cycles:   13560987 heartbeat IPC: 1.77821 cumulative IPC: 1.84352 (Simulation time: 0 hr 2 min 42 sec) 
Heartbeat CPU  2 instructions:   24000000 cycles:   13715563 heartbeat IPC: 1.83150 cumulative IPC: 1.74984 (Simulation time: 0 hr 2 min 44 sec) 
Heartbeat CPU  0 instructions:   26000002 cycles:   13938031 heartbeat IPC: 1.88121 cumulative IPC: 1.86540 (Simulation time: 0 hr 2 min 47 sec) 
Heartbeat CPU  1 instructions:   26000000 cycles:   14021082 heartbeat IPC: 1.89359 cumulative IPC: 1.85435 (Simulation time: 0 hr 2 min 48 sec) 
Heartbeat CPU  3 instructions:   26000001 cycles:   14086910 heartbeat IPC: 1.90142 cumulative IPC: 1.84569 (Simulation time: 0 hr 2 min 49 sec) 
Heartbeat CPU  2 instructions:   25000000 cycles:   14292602 heartbeat IPC: 1.73299 cumulative IPC: 1.74916 (Simulation time: 0 hr 2 min 51 sec) 
Heartbeat CPU  0 instructions:   27000000 cycles:   14465181 heartbeat IPC: 1.89699 cumulative IPC: 1.86655 (Simulation time: 0 hr 2 min 53 sec) 
Heartbeat CPU  1 instructions:   27000000 cycles:   14528130 heartbeat IPC: 1.97220 cumulative IPC: 1.85846 (Simulation time: 0 hr 2 min 54 sec) 
Heartbeat CPU  3 instructions:   27000003 cycles:   14621205 heartbeat IPC: 1.87163 cumulative IPC: 1.84663 (Simulation time: 0 hr 2 min 55 sec) 
Heartbeat CPU  2 instructions:   26000001 cycles:   14866126 heartbeat IPC: 1.74361 cumulative IPC: 1.74894 (Simulation time: 0 hr 2 min 58 sec) 
Heartbeat CPU  0 instructions:   28000000 cycles:   14980409 heartbeat IPC: 1.94089 cumulative IPC: 1.86911 (Simulation time: 0 hr 3 min 0 sec) 
Heartbeat CPU  1 instructions:   28000000 cycles:   15031880 heartbeat IPC: 1.98511 cumulative IPC: 1.86271 (Simulation time: 0 hr 3 min 0 sec) 
Heartbeat CPU  3 instructions:   28000000 cycles:   15126617 heartbeat IPC: 1.97858 cumulative IPC: 1.85104 (Simulation time: 0 hr 3 min 1 sec) 
Heartbeat CPU  2 instructions:   27000000 cycles:   15445101 heartbeat IPC: 1.72719 cumulative IPC: 1.74813 (Simulation time: 0 hr 3 min 6 sec) 
Heartbeat CPU  0 instructions:   29000001 cycles:   15479358 heartbeat IPC: 2.00421 cumulative IPC: 1.87346 (Simulation time: 0 hr 3 min 6 sec) 
Heartbeat CPU  1 instructions:   29000002 cycles:   15539845 heartbeat IPC: 1.96864 cumulative IPC: 1.86617 (Simulation time: 0 hr 3 min 7 sec) 
Heartbeat CPU  3 instructions:   29000003 cycles:   15635550 heartbeat IPC: 1.96490 cumulative IPC: 1.85475 (Simulation time: 0 hr 3 min 8 sec) 
Heartbeat CPU  0 instructions:   30000002 cycles:   15995291 heartbeat IPC: 1.93824 cumulative IPC: 1.87555 (Simulation time: 0 hr 3 min 12 sec) 
Heartbeat CPU  2 instructions:   28000000 cycles:   16003251 heartbeat IPC: 1.79163 cumulative IPC: 1.74964 (Simulation time: 0 hr 3 min 13 sec) 
Heartbeat CPU  1 instructions:   30000002 cycles:   16054191 heartbeat IPC: 1.94422 cumulative IPC: 1.86867 (Simulation time: 0 hr 3 min 13 sec) 
Heartbeat CPU  3 instructions:   30000000 cycles:   16158132 heartbeat IPC: 1.91357 cumulative IPC: 1.85665 (Simulation time: 0 hr 3 min 14 sec) 
Heartbeat CPU  0 instructions:   31000000 cycles:   16495068 heartbeat IPC: 2.00089 cumulative IPC: 1.87935 (Simulation time: 0 hr 3 min 19 sec) 
Heartbeat CPU  2 instructions:   29000001 cycles:   16538875 heartbeat IPC: 1.86698 cumulative IPC: 1.75344 (Simulation time: 0 hr 3 min 19 sec) 
Heartbeat CPU  1 instructions:   31000003 cycles:   16582398 heartbeat IPC: 1.89320 cumulative IPC: 1.86945 (Simulation time: 0 hr 3 min 20 sec) 
Heartbeat CPU  3 instructions:   31000002 cycles:   16666256 heartbeat IPC: 1.96803 cumulative IPC: 1.86005 (Simulation time: 0 hr 3 min 21 sec) 
Heartbeat CPU  2 instructions:   30000001 cycles:   17117586 heartbeat IPC: 1.72798 cumulative IPC: 1.75258 (Simulation time: 0 hr 3 min 26 sec) 
Heartbeat CPU  1 instructions:   32000000 cycles:   17124438 heartbeat IPC: 1.84488 cumulative IPC: 1.86867 (Simulation time: 0 hr 3 min 26 sec) 
Heartbeat CPU  0 instructions:   32000000 cycles:   17136619 heartbeat IPC: 1.55872 cumulative IPC: 1.86735 (Simulation time: 0 hr 3 min 26 sec) 
Heartbeat CPU  3 instructions:   32000000 cycles:   17172152 heartbeat IPC: 1.97669 cumulative IPC: 1.86348 (Simulation time: 0 hr 3 min 27 sec) 
Heartbeat CPU  0 instructions:   33000000 cycles:   17643871 heartbeat IPC: 1.97141 cumulative IPC: 1.87034 (Simulation time: 0 hr 3 min 33 sec) 
Heartbeat CPU  1 instructions:   33000003 cycles:   17651107 heartbeat IPC: 1.89873 cumulative IPC: 1.86957 (Simulation time: 0 hr 3 min 33 sec) 
Heartbeat CPU  2 instructions:   31000001 cycles:   17684455 heartbeat IPC: 1.76408 cumulative IPC: 1.75295 (Simulation time: 0 hr 3 min 33 sec) 
Heartbeat CPU  3 instructions:   33000001 cycles:   17716945 heartbeat IPC: 1.83556 cumulative IPC: 1.86262 (Simulation time: 0 hr 3 min 33 sec) 
Heartbeat CPU  0 instructions:   34000003 cycles:   18140589 heartbeat IPC: 2.01322 cumulative IPC: 1.87425 (Simulation time: 0 hr 3 min 39 sec) 
Heartbeat CPU  1 instructions:   34000003 cycles:   18163699 heartbeat IPC: 1.95087 cumulative IPC: 1.87187 (Simulation time: 0 hr 3 min 39 sec) 
Heartbeat CPU  3 instructions:   34000000 cycles:   18210367 heartbeat IPC: 2.02666 cumulative IPC: 1.86707 (Simulation time: 0 hr 3 min 40 sec) 
Heartbeat CPU  2 instructions:   32000000 cycles:   18272169 heartbeat IPC: 1.70151 cumulative IPC: 1.75130 (Simulation time: 0 hr 3 min 40 sec) 
Heartbeat CPU  0 instructions:   35000003 cycles:   18649666 heartbeat IPC: 1.96434 cumulative IPC: 1.87671 (Simulation time: 0 hr 3 min 45 sec) 
Heartbeat CPU  1 instructions:   35000003 cycles:   18677879 heartbeat IPC: 1.94484 cumulative IPC: 1.87387 (Simulation time: 0 hr 3 min 46 sec) 
Heartbeat CPU  3 instructions:   35000000 cycles:   18733079 heartbeat IPC: 1.91310 cumulative IPC: 1.86835 (Simulation time: 0 hr 3 min 46 sec) 
Heartbeat CPU  2 instructions:   33000001 cycles:   18810834 heartbeat IPC: 1.85644 cumulative IPC: 1.75431 (Simulation time: 0 hr 3 min 47 sec) 
Heartbeat CPU  1 instructions:   36000000 cycles:   19166365 heartbeat IPC: 2.04714 cumulative IPC: 1.87829 (Simulation time: 0 hr 3 min 52 sec) 
Heartbeat CPU  0 instructions:   36000000 cycles:   19168027 heartbeat IPC: 1.92915 cumulative IPC: 1.87813 (Simulation time: 0 hr 3 min 52 sec) 
Heartbeat CPU  3 instructions:   36000000 cycles:   19237893 heartbeat IPC: 1.98093 cumulative IPC: 1.87131 (Simulation time: 0 hr 3 min 53 sec) 
Heartbeat CPU  2 instructions:   34000003 cycles:   19418936 heartbeat IPC: 1.64446 cumulative IPC: 1.75087 (Simulation time: 0 hr 3 min 55 sec) 
Heartbeat CPU  0 instructions:   37000000 cycles:   19689796 heartbeat IPC: 1.91656 cumulative IPC: 1.87915 (Simulation time: 0 hr 3 min 58 sec) 
Heartbeat CPU  1 instructions:   37000003 cycles:   19695491 heartbeat IPC: 1.88991 cumulative IPC: 1.87860 (Simulation time: 0 hr 3 min 58 sec) 
Heartbeat CPU  3 instructions:   37000003 cycles:   19778562 heartbeat IPC: 1.84957 cumulative IPC: 1.87071 (Simulation time: 0 hr 3 min 59 sec) 
Heartbeat CPU  2 instructions:   35000000 cycles:   20001489 heartbeat IPC: 1.71658 cumulative IPC: 1.74987 (Simulation time: 0 hr 4 min 2 sec) 
Heartbeat CPU  0 instructions:   38000003 cycles:   20220148 heartbeat IPC: 1.88555 cumulative IPC: 1.87931 (Simulation time: 0 hr 4 min 5 sec) 
Heartbeat CPU  1 instructions:   38000003 cycles:   20223235 heartbeat IPC: 1.89486 cumulative IPC: 1.87903 (Simulation time: 0 hr 4 min 5 sec) 
Heartbeat CPU  3 instructions:   38000000 cycles:   20284261 heartbeat IPC: 1.97746 cumulative IPC: 1.87337 (Simulation time: 0 hr 4 min 6 sec) 
Heartbeat CPU  2 instructions:   36000000 cycles:   20559788 heartbeat IPC: 1.79115 cumulative IPC: 1.75099 (Simulation time: 0 hr 4 min 9 sec) 
Heartbeat CPU  1 instructions:   39000001 cycles:   20721192 heartbeat IPC: 2.00820 cumulative IPC: 1.88213 (Simulation time: 0 hr 4 min 11 sec) 
Heartbeat CPU  0 instructions:   39000003 cycles:   20741123 heartbeat IPC: 1.91948 cumulative IPC: 1.88032 (Simulation time: 0 hr 4 min 12 sec) 
Heartbeat CPU  3 instructions:   39000001 cycles:   20788341 heartbeat IPC: 1.98381 cumulative IPC: 1.87605 (Simulation time: 0 hr 4 min 12 sec) 
Heartbeat CPU  2 instructions:   37000001 cycles:   21116308 heartbeat IPC: 1.79688 cumulative IPC: 1.75220 (Simulation time: 0 hr 4 min 16 sec) 
Heartbeat CPU  0 instructions:   40000000 cycles:   21253739 heartbeat IPC: 1.95077 cumulative IPC: 1.88202 (Simulation time: 0 hr 4 min 18 sec) 
Heartbeat CPU  1 instructions:   40000000 cycles:   21269723 heartbeat IPC: 1.82305 cumulative IPC: 1.88061 (Simulation time: 0 hr 4 min 18 sec) 
Heartbeat CPU  3 instructions:   40000000 cycles:   21298126 heartbeat IPC: 1.96161 cumulative IPC: 1.87810 (Simulation time: 0 hr 4 min 18 sec) 
Heartbeat CPU  2 instructions:   38000000 cycles:   21700021 heartbeat IPC: 1.71317 cumulative IPC: 1.75115 (Simulation time: 0 hr 4 min 23 sec) 
Heartbeat CPU  1 instructions:   41000001 cycles:   21789983 heartbeat IPC: 1.92212 cumulative IPC: 1.88160 (Simulation time: 0 hr 4 min 24 sec) 
Heartbeat CPU  0 instructions:   41000000 cycles:   21805610 heartbeat IPC: 1.81202 cumulative IPC: 1.88025 (Simulation time: 0 hr 4 min 24 sec) 
Heartbeat CPU  3 instructions:   41000002 cycles:   21813719 heartbeat IPC: 1.93952 cumulative IPC: 1.87955 (Simulation time: 0 hr 4 min 24 sec) 
Heartbeat CPU  2 instructions:   39000000 cycles:   22270780 heartbeat IPC: 1.75205 cumulative IPC: 1.75117 (Simulation time: 0 hr 4 min 29 sec) 
Heartbeat CPU  1 instructions:   42000000 cycles:   22298132 heartbeat IPC: 1.96792 cumulative IPC: 1.88357 (Simulation time: 0 hr 4 min 30 sec) 
Heartbeat CPU  0 instructions:   42000002 cycles:   22400577 heartbeat IPC: 1.68077 cumulative IPC: 1.87495 (Simulation time: 0 hr 4 min 31 sec) 
Heartbeat CPU  3 instructions:   42000002 cycles:   22510754 heartbeat IPC: 1.43465 cumulative IPC: 1.86577 (Simulation time: 0 hr 4 min 32 sec) 
Heartbeat CPU  1 instructions:   43000000 cycles:   22809910 heartbeat IPC: 1.95397 cumulative IPC: 1.88515 (Simulation time: 0 hr 4 min 36 sec) 
Heartbeat CPU  2 instructions:   40000000 cycles:   22853287 heartbeat IPC: 1.71672 cumulative IPC: 1.75030 (Simulation time: 0 hr 4 min 36 sec) 
Heartbeat CPU  0 instructions:   43000003 cycles:   22952396 heartbeat IPC: 1.81219 cumulative IPC: 1.87344 (Simulation time: 0 hr 4 min 37 sec) 
Heartbeat CPU  3 instructions:   43000001 cycles:   23031692 heartbeat IPC: 1.91961 cumulative IPC: 1.86699 (Simulation time: 0 hr 4 min 38 sec) 
Heartbeat CPU  1 instructions:   44000000 cycles:   23329559 heartbeat IPC: 1.92438 cumulative IPC: 1.88602 (Simulation time: 0 hr 4 min 42 sec) 
Heartbeat CPU  2 instructions:   41000003 cycles:   23429364 heartbeat IPC: 1.73588 cumulative IPC: 1.74994 (Simulation time: 0 hr 4 min 43 sec) 
Heartbeat CPU  0 instructions:   44000000 cycles:   23495188 heartbeat IPC: 1.84232 cumulative IPC: 1.87272 (Simulation time: 0 hr 4 min 44 sec) 
Heartbeat CPU  3 instructions:   44000000 cycles:   23568979 heartbeat IPC: 1.86120 cumulative IPC: 1.86686 (Simulation time: 0 hr 4 min 45 sec) 
Heartbeat CPU  1 instructions:   45000002 cycles:   23883604 heartbeat IPC: 1.80491 cumulative IPC: 1.88414 (Simulation time: 0 hr 4 min 48 sec) 
Heartbeat CPU  2 instructions:   42000003 cycles:   24042380 heartbeat IPC: 1.63128 cumulative IPC: 1.74692 (Simulation time: 0 hr 4 min 50 sec) 
Heartbeat CPU  0 instructions:   45000000 cycles:   24052360 heartbeat IPC: 1.79478 cumulative IPC: 1.87092 (Simulation time: 0 hr 4 min 51 sec) 
Heartbeat CPU  3 instructions:   45000002 cycles:   24105674 heartbeat IPC: 1.86326 cumulative IPC: 1.86678 (Simulation time: 0 hr 4 min 51 sec) 
Heartbeat CPU  1 instructions:   46000000 cycles:   24413004 heartbeat IPC: 1.88893 cumulative IPC: 1.88424 (Simulation time: 0 hr 4 min 55 sec) 
Heartbeat CPU  0 instructions:   46000001 cycles:   24569111 heartbeat IPC: 1.93517 cumulative IPC: 1.87227 (Simulation time: 0 hr 4 min 57 sec) 
Heartbeat CPU  2 instructions:   43000002 cycles:   24629135 heartbeat IPC: 1.70429 cumulative IPC: 1.74590 (Simulation time: 0 hr 4 min 57 sec) 
Heartbeat CPU  3 instructions:   46000002 cycles:   24670287 heartbeat IPC: 1.77112 cumulative IPC: 1.86459 (Simulation time: 0 hr 4 min 58 sec) 
Heartbeat CPU  1 instructions:   47000001 cycles:   24936149 heartbeat IPC: 1.91152 cumulative IPC: 1.88481 (Simulation time: 0 hr 5 min 1 sec) 
Heartbeat CPU  0 instructions:   47000000 cycles:   25075653 heartbeat IPC: 1.97417 cumulative IPC: 1.87433 (Simulation time: 0 hr 5 min 3 sec) 
Heartbeat CPU  3 instructions:   47000001 cycles:   25180926 heartbeat IPC: 1.95833 cumulative IPC: 1.86649 (Simulation time: 0 hr 5 min 4 sec) 
Heartbeat CPU  2 instructions:   44000000 cycles:   25214672 heartbeat IPC: 1.70783 cumulative IPC: 1.74502 (Simulation time: 0 hr 5 min 5 sec) 
Heartbeat CPU  1 instructions:   48000000 cycles:   25446603 heartbeat IPC: 1.95904 cumulative IPC: 1.88630 (Simulation time: 0 hr 5 min 8 sec) 
Heartbeat CPU  0 instructions:   48000000 cycles:   25595126 heartbeat IPC: 1.92503 cumulative IPC: 1.87536 (Simulation time: 0 hr 5 min 9 sec) 
Heartbeat CPU  3 instructions:   48000000 cycles:   25702472 heartbeat IPC: 1.91737 cumulative IPC: 1.86752 (Simulation time: 0 hr 5 min 11 sec) 
Heartbeat CPU  2 instructions:   45000003 cycles:   25788260 heartbeat IPC: 1.74342 cumulative IPC: 1.74498 (Simulation time: 0 hr 5 min 12 sec) 
Heartbeat CPU  1 instructions:   49000002 cycles:   25975298 heartbeat IPC: 1.89145 cumulative IPC: 1.88641 (Simulation time: 0 hr 5 min 14 sec) 
Heartbeat CPU  0 instructions:   49000001 cycles:   26106240 heartbeat IPC: 1.95651 cumulative IPC: 1.87695 (Simulation time: 0 hr 5 min 16 sec) 
Heartbeat CPU  3 instructions:   49000003 cycles:   26239350 heartbeat IPC: 1.86263 cumulative IPC: 1.86742 (Simulation time: 0 hr 5 min 17 sec) 
Heartbeat CPU  2 instructions:   46000000 cycles:   26369915 heartbeat IPC: 1.71923 cumulative IPC: 1.74441 (Simulation time: 0 hr 5 min 19 sec) 
Heartbeat CPU  1 instructions:   50000000 cycles:   26488070 heartbeat IPC: 1.95018 cumulative IPC: 1.88764 (Simulation time: 0 hr 5 min 20 sec) 
Heartbeat CPU  0 instructions:   50000000 cycles:   26631926 heartbeat IPC: 1.90227 cumulative IPC: 1.87745 (Simulation time: 0 hr 5 min 22 sec) 
Heartbeat CPU  3 instructions:   50000003 cycles:   26761069 heartbeat IPC: 1.91674 cumulative IPC: 1.86839 (Simulation time: 0 hr 5 min 24 sec) 
Heartbeat CPU  2 instructions:   47000002 cycles:   27004747 heartbeat IPC: 1.57522 cumulative IPC: 1.74043 (Simulation time: 0 hr 5 min 27 sec) 
Heartbeat CPU  1 instructions:   51000002 cycles:   27027405 heartbeat IPC: 1.85414 cumulative IPC: 0.03700 (Simulation time: 0 hr 5 min 27 sec) 
Heartbeat CPU  0 instructions:   51000000 cycles:   27164206 heartbeat IPC: 1.87871 cumulative IPC: 0.03681 (Simulation time: 0 hr 5 min 28 sec) 
Heartbeat CPU  3 instructions:   51000000 cycles:   27362651 heartbeat IPC: 1.66228 cumulative IPC: 0.03655 (Simulation time: 0 hr 5 min 31 sec) 
Heartbeat CPU  1 instructions:   52000000 cycles:   27554319 heartbeat IPC: 1.89784 cumulative IPC: 0.07258 (Simulation time: 0 hr 5 min 33 sec) 
Heartbeat CPU  2 instructions:   48000000 cycles:   27576888 heartbeat IPC: 1.74782 cumulative IPC: 1.74059 (Simulation time: 0 hr 5 min 34 sec) 
Heartbeat CPU  0 instructions:   52000000 cycles:   27705152 heartbeat IPC: 1.84861 cumulative IPC: 0.07219 (Simulation time: 0 hr 5 min 35 sec) 
Heartbeat CPU  3 instructions:   52000000 cycles:   27874988 heartbeat IPC: 1.95184 cumulative IPC: 0.07175 (Simulation time: 0 hr 5 min 37 sec) 
Heartbeat CPU  1 instructions:   53000002 cycles:   28090845 heartbeat IPC: 1.86385 cumulative IPC: 0.10680 (Simulation time: 0 hr 5 min 40 sec) 
Heartbeat CPU  2 instructions:   49000000 cycles:   28153801 heartbeat IPC: 1.73336 cumulative IPC: 1.74044 (Simulation time: 0 hr 5 min 40 sec) 
Heartbeat CPU  0 instructions:   53000003 cycles:   28247380 heartbeat IPC: 1.84425 cumulative IPC: 0.10620 (Simulation time: 0 hr 5 min 41 sec) 
Heartbeat CPU  3 instructions:   53000001 cycles:   28420287 heartbeat IPC: 1.83386 cumulative IPC: 0.10556 (Simulation time: 0 hr 5 min 44 sec) 
Heartbeat CPU  1 instructions:   54000003 cycles:   28633904 heartbeat IPC: 1.84142 cumulative IPC: 0.13969 (Simulation time: 0 hr 5 min 46 sec) 
Heartbeat CPU  2 instructions:   50000000 cycles:   28708115 heartbeat IPC: 1.80403 cumulative IPC: 1.74167 (Simulation time: 0 hr 5 min 47 sec) 

Warmup complete CPU  0 instructions:   53802523 cycles:   28708115 (Simulation time: 0 hr 5 min 47 sec) 
Warmup complete CPU  1 instructions:   54150123 cycles:   28708115 (Simulation time: 0 hr 5 min 47 sec) 
Warmup complete CPU  2 instructions:   50000002 cycles:   28708116 (Simulation time: 0 hr 5 min 47 sec) 
Warmup complete CPU  3 instructions:   53512342 cycles:   28708115 (Simulation time: 0 hr 5 min 47 sec) 

Heartbeat CPU  0 instructions:   54000002 cycles:   29702630 heartbeat IPC: 0.68717 cumulative IPC: 0.19857 (Simulation time: 0 hr 5 min 49 sec) 
Heartbeat CPU  3 instructions:   54000003 cycles:   31050577 heartbeat IPC: 0.38019 cumulative IPC: 0.20818 (Simulation time: 0 hr 5 min 51 sec) 
Heartbeat CPU  1 instructions:   55000002 cycles:   32780630 heartbeat IPC: 0.24115 cumulative IPC: 0.20869 (Simulation time: 0 hr 5 min 54 sec) 
Heartbeat CPU  2 instructions:   51000001 cycles:   34320684 heartbeat IPC: 0.17817 cumulative IPC: 0.17817 (Simulation time: 0 hr 5 min 57 sec) 
Heartbeat CPU  0 instructions:   55000003 cycles:   34445985 heartbeat IPC: 0.21082 cumulative IPC: 0.20870 (Simulation time: 0 hr 5 min 58 sec) 
Heartbeat CPU  3 instructions:   55000002 cycles:   35772273 heartbeat IPC: 0.21179 cumulative IPC: 0.21059 (Simulation time: 0 hr 6 min 0 sec) 
Heartbeat CPU  1 instructions:   56000000 cycles:   37614290 heartbeat IPC: 0.20688 cumulative IPC: 0.20771 (Simulation time: 0 hr 6 min 3 sec) 
Heartbeat CPU  0 instructions:   56000000 cycles:   39197143 heartbeat IPC: 0.21047 cumulative IPC: 0.20950 (Simulation time: 0 hr 6 min 6 sec) 
Heartbeat CPU  2 instructions:   52000000 cycles:   40128015 heartbeat IPC: 0.17220 cumulative IPC: 0.17513 (Simulation time: 0 hr 6 min 8 sec) 
Heartbeat CPU  3 instructions:   56000000 cycles:   40578318 heartbeat IPC: 0.20807 cumulative IPC: 0.20957 (Simulation time: 0 hr 6 min 9 sec) 
Heartbeat CPU  1 instructions:   57000001 cycles:   42434217 heartbeat IPC: 0.20747 cumulative IPC: 0.20762 (Simulation time: 0 hr 6 min 12 sec) 
Heartbeat CPU  0 instructions:   57000001 cycles:   44037696 heartbeat IPC: 0.20659 cumulative IPC: 0.20858 (Simulation time: 0 hr 6 min 15 sec) 
Heartbeat CPU  3 instructions:   57000002 cycles:   45394947 heartbeat IPC: 0.20761 cumulative IPC: 0.20901 (Simulation time: 0 hr 6 min 17 sec) 
Heartbeat CPU  2 instructions:   53000000 cycles:   45999076 heartbeat IPC: 0.17033 cumulative IPC: 0.17350 (Simulation time: 0 hr 6 min 19 sec) 
Heartbeat CPU  1 instructions:   58000000 cycles:   47200658 heartbeat IPC: 0.20980 cumulative IPC: 0.20819 (Simulation time: 0 hr 6 min 21 sec) 
Heartbeat CPU  0 instructions:   58000000 cycles:   48823485 heartbeat IPC: 0.20895 cumulative IPC: 0.20867 (Simulation time: 0 hr 6 min 24 sec) 
Heartbeat CPU  3 instructions:   58000001 cycles:   50205676 heartbeat IPC: 0.20787 cumulative IPC: 0.20875 (Simulation time: 0 hr 6 min 27 sec) 
Heartbeat CPU  2 instructions:   54000001 cycles:   50964880 heartbeat IPC: 0.20138 cumulative IPC: 0.17972 (Simulation time: 0 hr 6 min 28 sec) 
Heartbeat CPU  1 instructions:   59000000 cycles:   51996109 heartbeat IPC: 0.20853 cumulative IPC: 0.20826 (Simulation time: 0 hr 6 min 30 sec) 
Heartbeat CPU  0 instructions:   59000002 cycles:   53650848 heartbeat IPC: 0.20715 cumulative IPC: 0.20838 (Simulation time: 0 hr 6 min 33 sec) 
Heartbeat CPU  3 instructions:   59000002 cycles:   54982895 heartbeat IPC: 0.20933 cumulative IPC: 0.20886 (Simulation time: 0 hr 6 min 35 sec) 
Heartbeat CPU  1 instructions:   60000000 cycles:   56790557 heartbeat IPC: 0.20857 cumulative IPC: 0.20831 (Simulation time: 0 hr 6 min 39 sec) 
Heartbeat CPU  2 instructions:   55000002 cycles:   56864439 heartbeat IPC: 0.16950 cumulative IPC: 0.17758 (Simulation time: 0 hr 6 min 39 sec) 
Heartbeat CPU  0 instructions:   60000000 cycles:   58463969 heartbeat IPC: 0.20776 cumulative IPC: 0.20828 (Simulation time: 0 hr 6 min 42 sec) 
Heartbeat CPU  3 instructions:   60000000 cycles:   59736492 heartbeat IPC: 0.21037 cumulative IPC: 0.20909 (Simulation time: 0 hr 6 min 44 sec) 
Heartbeat CPU  1 instructions:   61000002 cycles:   61553148 heartbeat IPC: 0.20997 cumulative IPC: 0.20855 (Simulation time: 0 hr 6 min 48 sec) 
Heartbeat CPU  2 instructions:   56000000 cycles:   62836228 heartbeat IPC: 0.16745 cumulative IPC: 0.17581 (Simulation time: 0 hr 6 min 50 sec) 
Heartbeat CPU  0 instructions:   61000002 cycles:   63212239 heartbeat IPC: 0.21060 cumulative IPC: 0.20860 (Simulation time: 0 hr 6 min 51 sec) 
Heartbeat CPU  3 instructions:   61000001 cycles:   64522351 heartbeat IPC: 0.20895 cumulative IPC: 0.20907 (Simulation time: 0 hr 6 min 53 sec) 
Heartbeat CPU  1 instructions:   62000002 cycles:   66340187 heartbeat IPC: 0.20890 cumulative IPC: 0.20860 (Simulation time: 0 hr 6 min 56 sec) 
Heartbeat CPU  0 instructions:   62000000 cycles:   68060906 heartbeat IPC: 0.20624 cumulative IPC: 0.20831 (Simulation time: 0 hr 6 min 59 sec) 
Heartbeat CPU  2 instructions:   57000000 cycles:   68696452 heartbeat IPC: 0.17064 cumulative IPC: 0.17505 (Simulation time: 0 hr 7 min 1 sec) 
Heartbeat CPU  3 instructions:   62000002 cycles:   69280833 heartbeat IPC: 0.21015 cumulative IPC: 0.20920 (Simulation time: 0 hr 7 min 2 sec) 
Heartbeat CPU  1 instructions:   63000001 cycles:   71150793 heartbeat IPC: 0.20787 cumulative IPC: 0.20851 (Simulation time: 0 hr 7 min 5 sec) 
Heartbeat CPU  0 instructions:   63000003 cycles:   72835876 heartbeat IPC: 0.20943 cumulative IPC: 0.20843 (Simulation time: 0 hr 7 min 8 sec) 
Heartbeat CPU  3 instructions:   63000002 cycles:   74140622 heartbeat IPC: 0.20577 cumulative IPC: 0.20883 (Simulation time: 0 hr 7 min 10 sec) 
Heartbeat CPU  2 instructions:   58000003 cycles:   74651975 heartbeat IPC: 0.16791 cumulative IPC: 0.17413 (Simulation time: 0 hr 7 min 11 sec) 
Heartbeat CPU  1 instructions:   64000000 cycles:   75772702 heartbeat IPC: 0.21636 cumulative IPC: 0.20928 (Simulation time: 0 hr 7 min 13 sec) 
Heartbeat CPU  0 instructions:   64000000 cycles:   77548795 heartbeat IPC: 0.21218 cumulative IPC: 0.20879 (Simulation time: 0 hr 7 min 17 sec) 
Heartbeat CPU  3 instructions:   64000000 cycles:   78913450 heartbeat IPC: 0.20952 cumulative IPC: 0.20890 (Simulation time: 0 hr 7 min 19 sec) 
Heartbeat CPU  1 instructions:   65000003 cycles:   80457460 heartbeat IPC: 0.21346 cumulative IPC: 0.20966 (Simulation time: 0 hr 7 min 22 sec) 
Heartbeat CPU  2 instructions:   59000000 cycles:   80489649 heartbeat IPC: 0.17130 cumulative IPC: 0.17381 (Simulation time: 0 hr 7 min 22 sec) 
Heartbeat CPU  0 instructions:   65000001 cycles:   82346243 heartbeat IPC: 0.20844 cumulative IPC: 0.20876 (Simulation time: 0 hr 7 min 25 sec) 
Heartbeat CPU  3 instructions:   65000002 cycles:   83722407 heartbeat IPC: 0.20795 cumulative IPC: 0.20881 (Simulation time: 0 hr 7 min 28 sec) 
Heartbeat CPU  1 instructions:   66000000 cycles:   85245797 heartbeat IPC: 0.20884 cumulative IPC: 0.20959 (Simulation time: 0 hr 7 min 31 sec) 
Heartbeat CPU  2 instructions:   60000000 cycles:   86381674 heartbeat IPC: 0.16972 cumulative IPC: 0.17339 (Simulation time: 0 hr 7 min 33 sec) 
Heartbeat CPU  0 instructions:   66000003 cycles:   87090184 heartbeat IPC: 0.21080 cumulative IPC: 0.20893 (Simulation time: 0 hr 7 min 34 sec) 
Heartbeat CPU  3 instructions:   66000001 cycles:   88412972 heartbeat IPC: 0.21319 cumulative IPC: 0.20916 (Simulation time: 0 hr 7 min 36 sec) 
Heartbeat CPU  1 instructions:   67000000 cycles:   90049821 heartbeat IPC: 0.20816 cumulative IPC: 0.20948 (Simulation time: 0 hr 7 min 39 sec) 
Heartbeat CPU  0 instructions:   67000002 cycles:   91750337 heartbeat IPC: 0.21459 cumulative IPC: 0.20934 (Simulation time: 0 hr 7 min 43 sec) 
Heartbeat CPU  2 instructions:   61000000 cycles:   92324148 heartbeat IPC: 0.16828 cumulative IPC: 0.17291 (Simulation time: 0 hr 7 min 44 sec) 
Heartbeat CPU  3 instructions:   67000003 cycles:   93192921 heartbeat IPC: 0.20921 cumulative IPC: 0.20916 (Simulation time: 0 hr 7 min 45 sec) 
Heartbeat CPU  1 instructions:   68000000 cycles:   94736871 heartbeat IPC: 0.21335 cumulative IPC: 0.20976 (Simulation time: 0 hr 7 min 48 sec) 
Heartbeat CPU  0 instructions:   68000000 cycles:   96442529 heartbeat IPC: 0.21312 cumulative IPC: 0.20961 (Simulation time: 0 hr 7 min 51 sec) 
Heartbeat CPU  3 instructions:   68000000 cycles:   97945616 heartbeat IPC: 0.21041 cumulative IPC: 0.20925 (Simulation time: 0 hr 7 min 54 sec) 
Heartbeat CPU  2 instructions:   62000002 cycles:   98240946 heartbeat IPC: 0.16901 cumulative IPC: 0.17258 (Simulation time: 0 hr 7 min 54 sec) 
Heartbeat CPU  1 instructions:   69000000 cycles:   99391980 heartbeat IPC: 0.21482 cumulative IPC: 0.21009 (Simulation time: 0 hr 7 min 57 sec) 
Heartbeat CPU  3 instructions:   69000000 cycles:  100254424 heartbeat IPC: 0.43312 cumulative IPC: 0.21647 (Simulation time: 0 hr 7 min 59 sec) 
Heartbeat CPU  0 instructions:   69000003 cycles:  101144515 heartbeat IPC: 0.21268 cumulative IPC: 0.20980 (Simulation time: 0 hr 8 min 1 sec) 
Heartbeat CPU  3 instructions:   70000003 cycles:  101727999 heartbeat IPC: 0.67862 cumulative IPC: 0.22580 (Simulation time: 0 hr 8 min 3 sec) 
Heartbeat CPU  3 instructions:   71000000 cycles:  103177637 heartbeat IPC: 0.68983 cumulative IPC: 0.23483 (Simulation time: 0 hr 8 min 7 sec) 
Heartbeat CPU  1 instructions:   70000003 cycles:  104014070 heartbeat IPC: 0.21635 cumulative IPC: 0.21047 (Simulation time: 0 hr 8 min 9 sec) 
Heartbeat CPU  2 instructions:   63000000 cycles:  104112000 heartbeat IPC: 0.17033 cumulative IPC: 0.17240 (Simulation time: 0 hr 8 min 9 sec) 
Heartbeat CPU  3 instructions:   72000000 cycles:  104620841 heartbeat IPC: 0.69290 cumulative IPC: 0.24354 (Simulation time: 0 hr 8 min 11 sec) 
Heartbeat CPU  0 instructions:   70000001 cycles:  105847982 heartbeat IPC: 0.21261 cumulative IPC: 0.20998 (Simulation time: 0 hr 8 min 13 sec) 
Heartbeat CPU  2 instructions:   64000000 cycles:  106787319 heartbeat IPC: 0.37379 cumulative IPC: 0.17931 (Simulation time: 0 hr 8 min 15 sec) 
Heartbeat CPU  1 instructions:   71000000 cycles:  108731373 heartbeat IPC: 0.21198 cumulative IPC: 0.21056 (Simulation time: 0 hr 8 min 20 sec) 
Heartbeat CPU  3 instructions:   73000001 cycles:  108846619 heartbeat IPC: 0.23664 cumulative IPC: 0.24317 (Simulation time: 0 hr 8 min 20 sec) 
Heartbeat CPU  2 instructions:   65000000 cycles:  109547124 heartbeat IPC: 0.36234 cumulative IPC: 0.18555 (Simulation time: 0 hr 8 min 21 sec) 
Heartbeat CPU  0 instructions:   71000002 cycles:  110605298 heartbeat IPC: 0.21020 cumulative IPC: 0.20999 (Simulation time: 0 hr 8 min 24 sec) 
Heartbeat CPU  2 instructions:   66000001 cycles:  112197798 heartbeat IPC: 0.37726 cumulative IPC: 0.19164 (Simulation time: 0 hr 8 min 27 sec) 
Heartbeat CPU  1 instructions:   72000000 cycles:  113426141 heartbeat IPC: 0.21300 cumulative IPC: 0.21070 (Simulation time: 0 hr 8 min 30 sec) 
Heartbeat CPU  3 instructions:   74000000 cycles:  113553965 heartbeat IPC: 0.21243 cumulative IPC: 0.24147 (Simulation time: 0 hr 8 min 31 sec) 
Heartbeat CPU  0 instructions:   72000000 cycles:  113679956 heartbeat IPC: 0.32524 cumulative IPC: 0.21416 (Simulation time: 0 hr 8 min 31 sec) 
Heartbeat CPU  2 instructions:   67000002 cycles:  114786051 heartbeat IPC: 0.38636 cumulative IPC: 0.19750 (Simulation time: 0 hr 8 min 34 sec) 
Heartbeat CPU  2 instructions:   68000000 cycles:  117341852 heartbeat IPC: 0.39127 cumulative IPC: 0.20308 (Simulation time: 0 hr 8 min 39 sec) 
Heartbeat CPU  0 instructions:   73000001 cycles:  117738555 heartbeat IPC: 0.24639 cumulative IPC: 0.21563 (Simulation time: 0 hr 8 min 40 sec) 
Heartbeat CPU  1 instructions:   73000002 cycles:  118058813 heartbeat IPC: 0.21586 cumulative IPC: 0.21097 (Simulation time: 0 hr 8 min 41 sec) 
Heartbeat CPU  3 instructions:   75000001 cycles:  118193187 heartbeat IPC: 0.21555 cumulative IPC: 0.24013 (Simulation time: 0 hr 8 min 41 sec) 
Heartbeat CPU  2 instructions:   69000003 cycles:  119667865 heartbeat IPC: 0.42992 cumulative IPC: 0.20888 (Simulation time: 0 hr 8 min 45 sec) 
Heartbeat CPU  2 instructions:   70000000 cycles:  121924203 heartbeat IPC: 0.44319 cumulative IPC: 0.21456 (Simulation time: 0 hr 8 min 50 sec) 
Heartbeat CPU  0 instructions:   74000003 cycles:  122464467 heartbeat IPC: 0.21160 cumulative IPC: 0.21543 (Simulation time: 0 hr 8 min 51 sec) 
Heartbeat CPU  1 instructions:   74000003 cycles:  122936045 heartbeat IPC: 0.20503 cumulative IPC: 0.21066 (Simulation time: 0 hr 8 min 52 sec) 
Heartbeat CPU  3 instructions:   76000000 cycles:  123067773 heartbeat IPC: 0.20515 cumulative IPC: 0.23832 (Simulation time: 0 hr 8 min 52 sec) 
Heartbeat CPU  2 instructions:   71000003 cycles:  124392028 heartbeat IPC: 0.40522 cumulative IPC: 0.21947 (Simulation time: 0 hr 8 min 55 sec) 
Heartbeat CPU  2 instructions:   72000000 cycles:  126556951 heartbeat IPC: 0.46191 cumulative IPC: 0.22484 (Simulation time: 0 hr 9 min 0 sec) 
Heartbeat CPU  0 instructions:   75000001 cycles:  127149146 heartbeat IPC: 0.21346 cumulative IPC: 0.21533 (Simulation time: 0 hr 9 min 2 sec) 
Heartbeat CPU  1 instructions:   75000002 cycles:  127533613 heartbeat IPC: 0.21751 cumulative IPC: 0.21098 (Simulation time: 0 hr 9 min 2 sec) 
Heartbeat CPU  3 instructions:   77000000 cycles:  127905644 heartbeat IPC: 0.20670 cumulative IPC: 0.23678 (Simulation time: 0 hr 9 min 3 sec) 
Heartbeat CPU  2 instructions:   73000000 cycles:  131798115 heartbeat IPC: 0.19080 cumulative IPC: 0.22311 (Simulation time: 0 hr 9 min 10 sec) 
Heartbeat CPU  0 instructions:   76000000 cycles:  131973302 heartbeat IPC: 0.20729 cumulative IPC: 0.21496 (Simulation time: 0 hr 9 min 10 sec) 
Heartbeat CPU  1 instructions:   76000000 cycles:  132315803 heartbeat IPC: 0.20911 cumulative IPC: 0.21089 (Simulation time: 0 hr 9 min 11 sec) 
Heartbeat CPU  3 instructions:   78000001 cycles:  132726730 heartbeat IPC: 0.20742 cumulative IPC: 0.23542 (Simulation time: 0 hr 9 min 12 sec) 
Heartbeat CPU  0 instructions:   77000002 cycles:  136780981 heartbeat IPC: 0.20800 cumulative IPC: 0.21465 (Simulation time: 0 hr 9 min 19 sec) 
Heartbeat CPU  1 instructions:   77000002 cycles:  137127938 heartbeat IPC: 0.20781 cumulative IPC: 0.21075 (Simulation time: 0 hr 9 min 20 sec) 
Heartbeat CPU  2 instructions:   74000000 cycles:  137392431 heartbeat IPC: 0.17875 cumulative IPC: 0.22082 (Simulation time: 0 hr 9 min 20 sec) 
Heartbeat CPU  3 instructions:   79000001 cycles:  137555725 heartbeat IPC: 0.20708 cumulative IPC: 0.23416 (Simulation time: 0 hr 9 min 20 sec) 
Heartbeat CPU  0 instructions:   78000000 cycles:  141574978 heartbeat IPC: 0.20859 cumulative IPC: 0.21439 (Simulation time: 0 hr 9 min 28 sec) 
Heartbeat CPU  1 instructions:   78000001 cycles:  142045597 heartbeat IPC: 0.20335 cumulative IPC: 0.21043 (Simulation time: 0 hr 9 min 29 sec) 
Heartbeat CPU  2 instructions:   75000003 cycles:  142331241 heartbeat IPC: 0.20248 cumulative IPC: 0.22003 (Simulation time: 0 hr 9 min 29 sec) 
Heartbeat CPU  3 instructions:   80000000 cycles:  142424089 heartbeat IPC: 0.20541 cumulative IPC: 0.23293 (Simulation time: 0 hr 9 min 29 sec) 
Heartbeat CPU  0 instructions:   79000002 cycles:  146315117 heartbeat IPC: 0.21096 cumulative IPC: 0.21425 (Simulation time: 0 hr 9 min 36 sec) 
Heartbeat CPU  1 instructions:   79000002 cycles:  146861982 heartbeat IPC: 0.20762 cumulative IPC: 0.21032 (Simulation time: 0 hr 9 min 37 sec) 
Heartbeat CPU  3 instructions:   81000000 cycles:  147260916 heartbeat IPC: 0.20675 cumulative IPC: 0.23186 (Simulation time: 0 hr 9 min 38 sec) 
Heartbeat CPU  2 instructions:   76000000 cycles:  148294131 heartbeat IPC: 0.16770 cumulative IPC: 0.21742 (Simulation time: 0 hr 9 min 40 sec) 
Heartbeat CPU  0 instructions:   80000000 cycles:  151132744 heartbeat IPC: 0.20757 cumulative IPC: 0.21399 (Simulation time: 0 hr 9 min 45 sec) 
Heartbeat CPU  1 instructions:   80000000 cycles:  151721746 heartbeat IPC: 0.20577 cumulative IPC: 0.21014 (Simulation time: 0 hr 9 min 46 sec) 
Heartbeat CPU  3 instructions:   82000000 cycles:  152002248 heartbeat IPC: 0.21091 cumulative IPC: 0.23105 (Simulation time: 0 hr 9 min 47 sec) 
Heartbeat CPU  2 instructions:   77000001 cycles:  154270739 heartbeat IPC: 0.16732 cumulative IPC: 0.21503 (Simulation time: 0 hr 9 min 51 sec) 
Heartbeat CPU  0 instructions:   81000000 cycles:  155911136 heartbeat IPC: 0.20928 cumulative IPC: 0.21381 (Simulation time: 0 hr 9 min 54 sec) 
Heartbeat CPU  1 instructions:   81000002 cycles:  156506189 heartbeat IPC: 0.20901 cumulative IPC: 0.21010 (Simulation time: 0 hr 9 min 55 sec) 
Heartbeat CPU  3 instructions:   83000002 cycles:  156964929 heartbeat IPC: 0.20150 cumulative IPC: 0.22991 (Simulation time: 0 hr 9 min 55 sec) 
Heartbeat CPU  2 instructions:   78000000 cycles:  160276517 heartbeat IPC: 0.16651 cumulative IPC: 0.21282 (Simulation time: 0 hr 10 min 2 sec) 
Heartbeat CPU  0 instructions:   82000002 cycles:  160698291 heartbeat IPC: 0.20889 cumulative IPC: 0.21363 (Simulation time: 0 hr 10 min 2 sec) 
Heartbeat CPU  1 instructions:   82000000 cycles:  161274993 heartbeat IPC: 0.20970 cumulative IPC: 0.21008 (Simulation time: 0 hr 10 min 3 sec) 
Heartbeat CPU  3 instructions:   84000000 cycles:  161824448 heartbeat IPC: 0.20578 cumulative IPC: 0.22903 (Simulation time: 0 hr 10 min 4 sec) 
Heartbeat CPU  0 instructions:   83000001 cycles:  165626850 heartbeat IPC: 0.20290 cumulative IPC: 0.21325 (Simulation time: 0 hr 10 min 11 sec) 
Heartbeat CPU  1 instructions:   83000002 cycles:  166038308 heartbeat IPC: 0.20994 cumulative IPC: 0.21008 (Simulation time: 0 hr 10 min 12 sec) 
Heartbeat CPU  2 instructions:   79000001 cycles:  166206346 heartbeat IPC: 0.16864 cumulative IPC: 0.21091 (Simulation time: 0 hr 10 min 12 sec) 
Heartbeat CPU  3 instructions:   85000002 cycles:  166699134 heartbeat IPC: 0.20514 cumulative IPC: 0.22819 (Simulation time: 0 hr 10 min 13 sec) 
Heartbeat CPU  0 instructions:   84000000 cycles:  170427487 heartbeat IPC: 0.20831 cumulative IPC: 0.21308 (Simulation time: 0 hr 10 min 20 sec) 
Heartbeat CPU  1 instructions:   84000000 cycles:  170776328 heartbeat IPC: 0.21106 cumulative IPC: 0.21011 (Simulation time: 0 hr 10 min 20 sec) 
Heartbeat CPU  3 instructions:   86000000 cycles:  171594373 heartbeat IPC: 0.20428 cumulative IPC: 0.22737 (Simulation time: 0 hr 10 min 22 sec) 
Heartbeat CPU  2 instructions:   80000000 cycles:  172215062 heartbeat IPC: 0.16642 cumulative IPC: 0.20905 (Simulation time: 0 hr 10 min 23 sec) 
Heartbeat CPU  0 instructions:   85000002 cycles:  175266556 heartbeat IPC: 0.20665 cumulative IPC: 0.21287 (Simulation time: 0 hr 10 min 28 sec) 
Heartbeat CPU  1 instructions:   85000001 cycles:  175571732 heartbeat IPC: 0.20853 cumulative IPC: 0.21006 (Simulation time: 0 hr 10 min 29 sec) 
Heartbeat CPU  3 instructions:   87000003 cycles:  176508961 heartbeat IPC: 0.20348 cumulative IPC: 0.22657 (Simulation time: 0 hr 10 min 31 sec) 
Heartbeat CPU  2 instructions:   81000001 cycles:  178090658 heartbeat IPC: 0.17020 cumulative IPC: 0.20752 (Simulation time: 0 hr 10 min 33 sec) 
Heartbeat CPU  0 instructions:   86000002 cycles:  180100462 heartbeat IPC: 0.20687 cumulative IPC: 0.21268 (Simulation time: 0 hr 10 min 37 sec) 
Heartbeat CPU  1 instructions:   86000001 cycles:  180388096 heartbeat IPC: 0.20763 cumulative IPC: 0.20998 (Simulation time: 0 hr 10 min 38 sec) 
Heartbeat CPU  3 instructions:   88000000 cycles:  181488322 heartbeat IPC: 0.20083 cumulative IPC: 0.22573 (Simulation time: 0 hr 10 min 40 sec) 
Heartbeat CPU  2 instructions:   82000000 cycles:  184014990 heartbeat IPC: 0.16880 cumulative IPC: 0.20604 (Simulation time: 0 hr 10 min 44 sec) 
Heartbeat CPU  0 instructions:   87000002 cycles:  184965450 heartbeat IPC: 0.20555 cumulative IPC: 0.21245 (Simulation time: 0 hr 10 min 46 sec) 
Heartbeat CPU  1 instructions:   87000003 cycles:  185319660 heartbeat IPC: 0.20278 cumulative IPC: 0.20975 (Simulation time: 0 hr 10 min 47 sec) 
Heartbeat CPU  3 instructions:   89000003 cycles:  186358249 heartbeat IPC: 0.20534 cumulative IPC: 0.22510 (Simulation time: 0 hr 10 min 49 sec) 
Heartbeat CPU  0 instructions:   88000000 cycles:  189709704 heartbeat IPC: 0.21078 cumulative IPC: 0.21240 (Simulation time: 0 hr 10 min 55 sec) 
Heartbeat CPU  2 instructions:   83000001 cycles:  189954456 heartbeat IPC: 0.16837 cumulative IPC: 0.20466 (Simulation time: 0 hr 10 min 55 sec) 
Heartbeat CPU  1 instructions:   88000000 cycles:  190115373 heartbeat IPC: 0.20852 cumulative IPC: 0.20972 (Simulation time: 0 hr 10 min 55 sec) 
Heartbeat CPU  3 instructions:   90000003 cycles:  191192097 heartbeat IPC: 0.20687 cumulative IPC: 0.22456 (Simulation time: 0 hr 10 min 57 sec) 
Heartbeat CPU  1 instructions:   89000002 cycles:  193336656 heartbeat IPC: 0.31044 cumulative IPC: 0.21169 (Simulation time: 0 hr 11 min 2 sec) 
Heartbeat CPU  0 instructions:   89000003 cycles:  194346974 heartbeat IPC: 0.21564 cumulative IPC: 0.21250 (Simulation time: 0 hr 11 min 4 sec) 
Heartbeat CPU  2 instructions:   84000000 cycles:  195833238 heartbeat IPC: 0.17010 cumulative IPC: 0.20344 (Simulation time: 0 hr 11 min 7 sec) 
Heartbeat CPU  3 instructions:   91000000 cycles:  195936351 heartbeat IPC: 0.21078 cumulative IPC: 0.22417 (Simulation time: 0 hr 11 min 7 sec) 
Heartbeat CPU  1 instructions:   90000003 cycles:  198038793 heartbeat IPC: 0.21267 cumulative IPC: 0.21172 (Simulation time: 0 hr 11 min 11 sec) 
Heartbeat CPU  0 instructions:   90000001 cycles:  199062044 heartbeat IPC: 0.21209 cumulative IPC: 0.21248 (Simulation time: 0 hr 11 min 12 sec) 
Heartbeat CPU  3 instructions:   92000000 cycles:  200674671 heartbeat IPC: 0.21105 cumulative IPC: 0.22381 (Simulation time: 0 hr 11 min 15 sec) 
Heartbeat CPU  2 instructions:   85000000 cycles:  201834337 heartbeat IPC: 0.16664 cumulative IPC: 0.20216 (Simulation time: 0 hr 11 min 17 sec) 
Heartbeat CPU  1 instructions:   91000002 cycles:  202845071 heartbeat IPC: 0.20806 cumulative IPC: 0.21161 (Simulation time: 0 hr 11 min 19 sec) 
Heartbeat CPU  0 instructions:   91000003 cycles:  203901560 heartbeat IPC: 0.20663 cumulative IPC: 0.21232 (Simulation time: 0 hr 11 min 21 sec) 
Heartbeat CPU  3 instructions:   93000002 cycles:  205435561 heartbeat IPC: 0.21005 cumulative IPC: 0.22344 (Simulation time: 0 hr 11 min 24 sec) 
Heartbeat CPU  1 instructions:   92000000 cycles:  207620829 heartbeat IPC: 0.20939 cumulative IPC: 0.21155 (Simulation time: 0 hr 11 min 28 sec) 
Heartbeat CPU  2 instructions:   86000002 cycles:  207787998 heartbeat IPC: 0.16796 cumulative IPC: 0.20103 (Simulation time: 0 hr 11 min 28 sec) 
Heartbeat CPU  0 instructions:   92000000 cycles:  208654245 heartbeat IPC: 0.21041 cumulative IPC: 0.21227 (Simulation time: 0 hr 11 min 30 sec) 
Heartbeat CPU  3 instructions:   94000002 cycles:  210233458 heartbeat IPC: 0.20842 cumulative IPC: 0.22304 (Simulation time: 0 hr 11 min 33 sec) 
Heartbeat CPU  1 instructions:   93000003 cycles:  212360712 heartbeat IPC: 0.21098 cumulative IPC: 0.21154 (Simulation time: 0 hr 11 min 37 sec) 
Heartbeat CPU  2 instructions:   87000003 cycles:  212716261 heartbeat IPC: 0.20291 cumulative IPC: 0.20108 (Simulation time: 0 hr 11 min 38 sec) 
Heartbeat CPU  0 instructions:   93000000 cycles:  213365971 heartbeat IPC: 0.21224 cumulative IPC: 0.21227 (Simulation time: 0 hr 11 min 39 sec) 
Heartbeat CPU  3 instructions:   95000000 cycles:  215050685 heartbeat IPC: 0.20759 cumulative IPC: 0.22264 (Simulation time: 0 hr 11 min 42 sec) 
Heartbeat CPU  1 instructions:   94000000 cycles:  217092987 heartbeat IPC: 0.21131 cumulative IPC: 0.21153 (Simulation time: 0 hr 11 min 46 sec) 
Heartbeat CPU  0 instructions:   94000001 cycles:  218172557 heartbeat IPC: 0.20805 cumulative IPC: 0.21216 (Simulation time: 0 hr 11 min 48 sec) 
Heartbeat CPU  2 instructions:   88000000 cycles:  218657758 heartbeat IPC: 0.16831 cumulative IPC: 0.20005 (Simulation time: 0 hr 11 min 49 sec) 
Heartbeat CPU  3 instructions:   96000000 cycles:  219826671 heartbeat IPC: 0.20938 cumulative IPC: 0.22231 (Simulation time: 0 hr 11 min 51 sec) 
Heartbeat CPU  1 instructions:   95000000 cycles:  221897935 heartbeat IPC: 0.20812 cumulative IPC: 0.21145 (Simulation time: 0 hr 11 min 55 sec) 
Heartbeat CPU  2 instructions:   89000002 cycles:  222378201 heartbeat IPC: 0.26879 cumulative IPC: 0.20137 (Simulation time: 0 hr 11 min 56 sec) 
Heartbeat CPU  0 instructions:   95000002 cycles:  222926981 heartbeat IPC: 0.21033 cumulative IPC: 0.21212 (Simulation time: 0 hr 11 min 57 sec) 
Heartbeat CPU  3 instructions:   97000002 cycles:  224586707 heartbeat IPC: 0.21008 cumulative IPC: 0.22201 (Simulation time: 0 hr 12 min 0 sec) 
Heartbeat CPU  1 instructions:   96000000 cycles:  226688705 heartbeat IPC: 0.20873 cumulative IPC: 0.21138 (Simulation time: 0 hr 12 min 4 sec) 
Heartbeat CPU  0 instructions:   96000000 cycles:  227724505 heartbeat IPC: 0.20844 cumulative IPC: 0.21203 (Simulation time: 0 hr 12 min 6 sec) 
Heartbeat CPU  2 instructions:   90000000 cycles:  228004535 heartbeat IPC: 0.17774 cumulative IPC: 0.20071 (Simulation time: 0 hr 12 min 6 sec) 
Heartbeat CPU  3 instructions:   98000000 cycles:  229226671 heartbeat IPC: 0.21552 cumulative IPC: 0.22186 (Simulation time: 0 hr 12 min 9 sec) 
Heartbeat CPU  1 instructions:   97000000 cycles:  230155606 heartbeat IPC: 0.28844 cumulative IPC: 0.21271 (Simulation time: 0 hr 12 min 11 sec) 
Heartbeat CPU  0 instructions:   97000002 cycles:  232370399 heartbeat IPC: 0.21524 cumulative IPC: 0.21210 (Simulation time: 0 hr 12 min 15 sec) 
Heartbeat CPU  2 instructions:   91000001 cycles:  233254669 heartbeat IPC: 0.19047 cumulative IPC: 0.20044 (Simulation time: 0 hr 12 min 16 sec) 
Heartbeat CPU  3 instructions:   99000003 cycles:  234032221 heartbeat IPC: 0.20809 cumulative IPC: 0.22154 (Simulation time: 0 hr 12 min 18 sec) 
Heartbeat CPU  1 instructions:   98000001 cycles:  234933842 heartbeat IPC: 0.20928 cumulative IPC: 0.21263 (Simulation time: 0 hr 12 min 20 sec) 
Heartbeat CPU  2 instructions:   92000000 cycles:  236925603 heartbeat IPC: 0.27241 cumulative IPC: 0.20171 (Simulation time: 0 hr 12 min 24 sec) 
Heartbeat CPU  0 instructions:   98000001 cycles:  237092195 heartbeat IPC: 0.21178 cumulative IPC: 0.21210 (Simulation time: 0 hr 12 min 24 sec) 
*** Reached end of trace for Core: 3 Repeating trace: /data3/STREAMING/traces/streaming_phase3_core3.trace.xz
Heartbeat CPU  3 instructions:  100000000 cycles:  238815693 heartbeat IPC: 0.20905 cumulative IPC: 0.22126 (Simulation time: 0 hr 12 min 28 sec) 
Heartbeat CPU  1 instructions:   99000000 cycles:  239714240 heartbeat IPC: 0.20919 cumulative IPC: 0.21255 (Simulation time: 0 hr 12 min 30 sec) 
Heartbeat CPU  2 instructions:   93000000 cycles:  240063179 heartbeat IPC: 0.31872 cumulative IPC: 0.20345 (Simulation time: 0 hr 12 min 30 sec) 
Heartbeat CPU  0 instructions:   99000003 cycles:  241911666 heartbeat IPC: 0.20749 cumulative IPC: 0.21199 (Simulation time: 0 hr 12 min 34 sec) 
Heartbeat CPU  3 instructions:  101000001 cycles:  243631096 heartbeat IPC: 0.20767 cumulative IPC: 0.22095 (Simulation time: 0 hr 12 min 37 sec) 
*** Reached end of trace for Core: 1 Repeating trace: /data3/STREAMING/traces/streaming_phase3_core1.trace.xz
Heartbeat CPU  1 instructions:  100000000 cycles:  244535956 heartbeat IPC: 0.20740 cumulative IPC: 0.21244 (Simulation time: 0 hr 12 min 39 sec) 
Heartbeat CPU  2 instructions:   94000000 cycles:  244652850 heartbeat IPC: 0.21788 cumulative IPC: 0.20376 (Simulation time: 0 hr 12 min 39 sec) 
*** Reached end of trace for Core: 0 Repeating trace: /data3/STREAMING/traces/streaming_phase3_core0.trace.xz
Heartbeat CPU  0 instructions:  100000000 cycles:  246742253 heartbeat IPC: 0.20701 cumulative IPC: 0.21188 (Simulation time: 0 hr 12 min 43 sec) 
Heartbeat CPU  3 instructions:  102000003 cycles:  248413357 heartbeat IPC: 0.20911 cumulative IPC: 0.22069 (Simulation time: 0 hr 12 min 46 sec) 
Heartbeat CPU  1 instructions:  101000000 cycles:  249365510 heartbeat IPC: 0.20706 cumulative IPC: 0.21232 (Simulation time: 0 hr 12 min 48 sec) 
Heartbeat CPU  2 instructions:   95000001 cycles:  250548708 heartbeat IPC: 0.16961 cumulative IPC: 0.20285 (Simulation time: 0 hr 12 min 50 sec) 
Heartbeat CPU  0 instructions:  101000000 cycles:  251590780 heartbeat IPC: 0.20625 cumulative IPC: 0.21176 (Simulation time: 0 hr 12 min 52 sec) 
Heartbeat CPU  3 instructions:  103000003 cycles:  253113013 heartbeat IPC: 0.21278 cumulative IPC: 0.22053 (Simulation time: 0 hr 12 min 55 sec) 
Heartbeat CPU  1 instructions:  102000001 cycles:  254151265 heartbeat IPC: 0.20895 cumulative IPC: 0.21225 (Simulation time: 0 hr 12 min 56 sec) 
Heartbeat CPU  0 instructions:  102000001 cycles:  256345917 heartbeat IPC: 0.21030 cumulative IPC: 0.21173 (Simulation time: 0 hr 13 min 0 sec) 
Heartbeat CPU  2 instructions:   96000000 cycles:  256432479 heartbeat IPC: 0.16996 cumulative IPC: 0.20200 (Simulation time: 0 hr 13 min 1 sec) 
Heartbeat CPU  3 instructions:  104000000 cycles:  257864554 heartbeat IPC: 0.21046 cumulative IPC: 0.22032 (Simulation time: 0 hr 13 min 3 sec) 
Heartbeat CPU  1 instructions:  103000003 cycles:  259045949 heartbeat IPC: 0.20430 cumulative IPC: 0.21208 (Simulation time: 0 hr 13 min 6 sec) 
Heartbeat CPU  2 instructions:   97000002 cycles:  260160460 heartbeat IPC: 0.26824 cumulative IPC: 0.20307 (Simulation time: 0 hr 13 min 8 sec) 
Heartbeat CPU  0 instructions:  103000001 cycles:  261101116 heartbeat IPC: 0.21030 cumulative IPC: 0.21170 (Simulation time: 0 hr 13 min 10 sec) 
Heartbeat CPU  3 instructions:  105000001 cycles:  262717991 heartbeat IPC: 0.20604 cumulative IPC: 0.22002 (Simulation time: 0 hr 13 min 13 sec) 
Heartbeat CPU  1 instructions:  104000000 cycles:  263735881 heartbeat IPC: 0.21322 cumulative IPC: 0.21210 (Simulation time: 0 hr 13 min 14 sec) 
Heartbeat CPU  2 instructions:   98000003 cycles:  265801254 heartbeat IPC: 0.17728 cumulative IPC: 0.20245 (Simulation time: 0 hr 13 min 18 sec) 
Heartbeat CPU  0 instructions:  104000000 cycles:  265905305 heartbeat IPC: 0.20815 cumulative IPC: 0.21163 (Simulation time: 0 hr 13 min 18 sec) 
Heartbeat CPU  3 instructions:  106000002 cycles:  267490784 heartbeat IPC: 0.20952 cumulative IPC: 0.21981 (Simulation time: 0 hr 13 min 21 sec) 
Heartbeat CPU  1 instructions:  105000001 cycles:  268580491 heartbeat IPC: 0.20642 cumulative IPC: 0.21199 (Simulation time: 0 hr 13 min 23 sec) 
Heartbeat CPU  0 instructions:  105000003 cycles:  270760455 heartbeat IPC: 0.20597 cumulative IPC: 0.21151 (Simulation time: 0 hr 13 min 27 sec) 
Heartbeat CPU  2 instructions:   99000001 cycles:  271650898 heartbeat IPC: 0.17095 cumulative IPC: 0.20169 (Simulation time: 0 hr 13 min 29 sec) 
Heartbeat CPU  3 instructions:  107000003 cycles:  272258035 heartbeat IPC: 0.20976 cumulative IPC: 0.21962 (Simulation time: 0 hr 13 min 30 sec) 
Heartbeat CPU  1 instructions:  106000001 cycles:  273435950 heartbeat IPC: 0.20595 cumulative IPC: 0.21187 (Simulation time: 0 hr 13 min 32 sec) 
Heartbeat CPU  0 instructions:  106000003 cycles:  275509954 heartbeat IPC: 0.21055 cumulative IPC: 0.21150 (Simulation time: 0 hr 13 min 36 sec) 
*** Reached end of trace for Core: 2 Repeating trace: /data3/STREAMING/traces/streaming_phase3_core2.trace.xz
Heartbeat CPU  3 instructions:  108000000 cycles:  277010762 heartbeat IPC: 0.21040 cumulative IPC: 0.21944 (Simulation time: 0 hr 13 min 39 sec) 
Heartbeat CPU  2 instructions:  100000000 cycles:  277391252 heartbeat IPC: 0.17421 cumulative IPC: 0.20106 (Simulation time: 0 hr 13 min 39 sec) 
Heartbeat CPU  1 instructions:  107000003 cycles:  278278857 heartbeat IPC: 0.20649 cumulative IPC: 0.21176 (Simulation time: 0 hr 13 min 41 sec) 
Heartbeat CPU  0 instructions:  107000002 cycles:  280247724 heartbeat IPC: 0.21107 cumulative IPC: 0.21149 (Simulation time: 0 hr 13 min 45 sec) 
Heartbeat CPU  3 instructions:  109000002 cycles:  281895917 heartbeat IPC: 0.20470 cumulative IPC: 0.21916 (Simulation time: 0 hr 13 min 48 sec) 
Heartbeat CPU  1 instructions:  108000000 cycles:  283015446 heartbeat IPC: 0.21112 cumulative IPC: 0.21175 (Simulation time: 0 hr 13 min 50 sec) 
Heartbeat CPU  2 instructions:  101000002 cycles:  283335565 heartbeat IPC: 0.16823 cumulative IPC: 0.20029 (Simulation time: 0 hr 13 min 50 sec) 
Heartbeat CPU  0 instructions:  108000000 cycles:  285065498 heartbeat IPC: 0.20756 cumulative IPC: 0.21141 (Simulation time: 0 hr 13 min 53 sec) 
Heartbeat CPU  3 instructions:  110000000 cycles:  286707834 heartbeat IPC: 0.20782 cumulative IPC: 0.21894 (Simulation time: 0 hr 13 min 56 sec) 
Heartbeat CPU  1 instructions:  109000001 cycles:  287875817 heartbeat IPC: 0.20575 cumulative IPC: 0.21164 (Simulation time: 0 hr 13 min 58 sec) 
Heartbeat CPU  2 instructions:  102000000 cycles:  289216125 heartbeat IPC: 0.17005 cumulative IPC: 0.19961 (Simulation time: 0 hr 14 min 1 sec) 
Heartbeat CPU  0 instructions:  109000000 cycles:  289971509 heartbeat IPC: 0.20383 cumulative IPC: 0.21127 (Simulation time: 0 hr 14 min 2 sec) 
Heartbeat CPU  3 instructions:  111000002 cycles:  291479831 heartbeat IPC: 0.20956 cumulative IPC: 0.21877 (Simulation time: 0 hr 14 min 5 sec) 
Heartbeat CPU  1 instructions:  110000003 cycles:  292866594 heartbeat IPC: 0.20037 cumulative IPC: 0.21143 (Simulation time: 0 hr 14 min 7 sec) 
Heartbeat CPU  0 instructions:  110000002 cycles:  294759649 heartbeat IPC: 0.20885 cumulative IPC: 0.21123 (Simulation time: 0 hr 14 min 11 sec) 
Heartbeat CPU  2 instructions:  103000003 cycles:  295019096 heartbeat IPC: 0.17233 cumulative IPC: 0.19902 (Simulation time: 0 hr 14 min 11 sec) 
Heartbeat CPU  3 instructions:  112000000 cycles:  296290390 heartbeat IPC: 0.20788 cumulative IPC: 0.21858 (Simulation time: 0 hr 14 min 14 sec) 
Heartbeat CPU  1 instructions:  111000002 cycles:  297649397 heartbeat IPC: 0.20908 cumulative IPC: 0.21138 (Simulation time: 0 hr 14 min 16 sec) 
Heartbeat CPU  0 instructions:  111000003 cycles:  299478345 heartbeat IPC: 0.21192 cumulative IPC: 0.21124 (Simulation time: 0 hr 14 min 20 sec) 
Heartbeat CPU  3 instructions:  113000002 cycles:  300894965 heartbeat IPC: 0.21718 cumulative IPC: 0.21855 (Simulation time: 0 hr 14 min 22 sec) 
Heartbeat CPU  2 instructions:  104000000 cycles:  301019308 heartbeat IPC: 0.16666 cumulative IPC: 0.19830 (Simulation time: 0 hr 14 min 23 sec) 
Heartbeat CPU  1 instructions:  112000000 cycles:  302322302 heartbeat IPC: 0.21400 cumulative IPC: 0.21143 (Simulation time: 0 hr 14 min 25 sec) 
Heartbeat CPU  0 instructions:  112000000 cycles:  304161462 heartbeat IPC: 0.21353 cumulative IPC: 0.21128 (Simulation time: 0 hr 14 min 28 sec) 
Heartbeat CPU  3 instructions:  114000000 cycles:  305694263 heartbeat IPC: 0.20836 cumulative IPC: 0.21838 (Simulation time: 0 hr 14 min 31 sec) 
Heartbeat CPU  1 instructions:  113000000 cycles:  306889177 heartbeat IPC: 0.21897 cumulative IPC: 0.21155 (Simulation time: 0 hr 14 min 33 sec) 
Heartbeat CPU  2 instructions:  105000002 cycles:  306910989 heartbeat IPC: 0.16973 cumulative IPC: 0.19770 (Simulation time: 0 hr 14 min 33 sec) 
Heartbeat CPU  0 instructions:  113000000 cycles:  308630960 heartbeat IPC: 0.22374 cumulative IPC: 0.21148 (Simulation time: 0 hr 14 min 37 sec) 
Heartbeat CPU  3 instructions:  115000003 cycles:  310552934 heartbeat IPC: 0.20582 cumulative IPC: 0.21816 (Simulation time: 0 hr 14 min 40 sec) 
Heartbeat CPU  1 instructions:  114000002 cycles:  311697251 heartbeat IPC: 0.20798 cumulative IPC: 0.21149 (Simulation time: 0 hr 14 min 42 sec) 
Heartbeat CPU  2 instructions:  106000003 cycles:  312864384 heartbeat IPC: 0.16797 cumulative IPC: 0.19707 (Simulation time: 0 hr 14 min 44 sec) 
Heartbeat CPU  0 instructions:  114000003 cycles:  313291616 heartbeat IPC: 0.21456 cumulative IPC: 0.21153 (Simulation time: 0 hr 14 min 45 sec) 
Heartbeat CPU  3 instructions:  116000000 cycles:  315351236 heartbeat IPC: 0.20841 cumulative IPC: 0.21800 (Simulation time: 0 hr 14 min 49 sec) 
Heartbeat CPU  1 instructions:  115000000 cycles:  316397946 heartbeat IPC: 0.21273 cumulative IPC: 0.21151 (Simulation time: 0 hr 14 min 51 sec) 
Heartbeat CPU  0 instructions:  115000000 cycles:  318077570 heartbeat IPC: 0.20894 cumulative IPC: 0.21149 (Simulation time: 0 hr 14 min 54 sec) 
Heartbeat CPU  2 instructions:  107000000 cycles:  318624905 heartbeat IPC: 0.17359 cumulative IPC: 0.19661 (Simulation time: 0 hr 14 min 55 sec) 
Heartbeat CPU  3 instructions:  117000003 cycles:  320103481 heartbeat IPC: 0.21043 cumulative IPC: 0.21787 (Simulation time: 0 hr 14 min 58 sec) 
Heartbeat CPU  1 instructions:  116000000 cycles:  321221683 heartbeat IPC: 0.20731 cumulative IPC: 0.21144 (Simulation time: 0 hr 15 min 0 sec) 
Heartbeat CPU  0 instructions:  116000000 cycles:  322817380 heartbeat IPC: 0.21098 cumulative IPC: 0.21148 (Simulation time: 0 hr 15 min 3 sec) 
Heartbeat CPU  2 instructions:  108000000 cycles:  324494467 heartbeat IPC: 0.17037 cumulative IPC: 0.19609 (Simulation time: 0 hr 15 min 6 sec) 
Heartbeat CPU  3 instructions:  118000002 cycles:  324983489 heartbeat IPC: 0.20492 cumulative IPC: 0.21766 (Simulation time: 0 hr 15 min 7 sec) 
Heartbeat CPU  1 instructions:  117000000 cycles:  325926745 heartbeat IPC: 0.21254 cumulative IPC: 0.21146 (Simulation time: 0 hr 15 min 8 sec) 
Heartbeat CPU  0 instructions:  117000000 cycles:  327602964 heartbeat IPC: 0.20896 cumulative IPC: 0.21144 (Simulation time: 0 hr 15 min 11 sec) 
Heartbeat CPU  3 instructions:  119000003 cycles:  329820759 heartbeat IPC: 0.20673 cumulative IPC: 0.21749 (Simulation time: 0 hr 15 min 15 sec) 
Heartbeat CPU  2 instructions:  109000002 cycles:  330515029 heartbeat IPC: 0.16610 cumulative IPC: 0.19549 (Simulation time: 0 hr 15 min 17 sec) 
Heartbeat CPU  1 instructions:  118000000 cycles:  330668256 heartbeat IPC: 0.21090 cumulative IPC: 0.21145 (Simulation time: 0 hr 15 min 17 sec) 
Heartbeat CPU  0 instructions:  118000003 cycles:  332353456 heartbeat IPC: 0.21051 cumulative IPC: 0.21142 (Simulation time: 0 hr 15 min 20 sec) 
Heartbeat CPU  3 instructions:  120000000 cycles:  334598417 heartbeat IPC: 0.20931 cumulative IPC: 0.21736 (Simulation time: 0 hr 15 min 24 sec) 
Heartbeat CPU  1 instructions:  119000000 cycles:  335514515 heartbeat IPC: 0.20634 cumulative IPC: 0.21137 (Simulation time: 0 hr 15 min 26 sec) 
Heartbeat CPU  2 instructions:  110000003 cycles:  336341806 heartbeat IPC: 0.17162 cumulative IPC: 0.19504 (Simulation time: 0 hr 15 min 27 sec) 
Heartbeat CPU  0 instructions:  119000003 cycles:  337203918 heartbeat IPC: 0.20617 cumulative IPC: 0.21134 (Simulation time: 0 hr 15 min 29 sec) 
Heartbeat CPU  2 instructions:  111000000 cycles:  339175853 heartbeat IPC: 0.35285 cumulative IPC: 0.19648 (Simulation time: 0 hr 15 min 33 sec) 
Heartbeat CPU  3 instructions:  121000001 cycles:  339604651 heartbeat IPC: 0.19975 cumulative IPC: 0.21707 (Simulation time: 0 hr 15 min 34 sec) 
Heartbeat CPU  1 instructions:  120000000 cycles:  340172659 heartbeat IPC: 0.21468 cumulative IPC: 0.21142 (Simulation time: 0 hr 15 min 36 sec) 
Heartbeat CPU  0 instructions:  120000000 cycles:  341850459 heartbeat IPC: 0.21521 cumulative IPC: 0.21140 (Simulation time: 0 hr 15 min 39 sec) 
Heartbeat CPU  2 instructions:  112000000 cycles:  343883236 heartbeat IPC: 0.21243 cumulative IPC: 0.19672 (Simulation time: 0 hr 15 min 42 sec) 
Heartbeat CPU  3 instructions:  122000002 cycles:  344352005 heartbeat IPC: 0.21064 cumulative IPC: 0.21698 (Simulation time: 0 hr 15 min 43 sec) 
Heartbeat CPU  1 instructions:  121000002 cycles:  344947455 heartbeat IPC: 0.20943 cumulative IPC: 0.21139 (Simulation time: 0 hr 15 min 44 sec) 
Heartbeat CPU  0 instructions:  121000002 cycles:  346837352 heartbeat IPC: 0.20053 cumulative IPC: 0.21123 (Simulation time: 0 hr 15 min 48 sec) 
Heartbeat CPU  3 instructions:  123000000 cycles:  349010741 heartbeat IPC: 0.21465 cumulative IPC: 0.21694 (Simulation time: 0 hr 15 min 52 sec) 
Heartbeat CPU  2 instructions:  113000001 cycles:  349637662 heartbeat IPC: 0.17378 cumulative IPC: 0.19630 (Simulation time: 0 hr 15 min 53 sec) 
Heartbeat CPU  1 instructions:  122000003 cycles:  349664302 heartbeat IPC: 0.21201 cumulative IPC: 0.21140 (Simulation time: 0 hr 15 min 53 sec) 
Heartbeat CPU  0 instructions:  122000002 cycles:  351614438 heartbeat IPC: 0.20933 cumulative IPC: 0.21120 (Simulation time: 0 hr 15 min 57 sec) 
Heartbeat CPU  3 instructions:  124000000 cycles:  353724345 heartbeat IPC: 0.21215 cumulative IPC: 0.21687 (Simulation time: 0 hr 16 min 0 sec) 
Heartbeat CPU  1 instructions:  123000000 cycles:  354616847 heartbeat IPC: 0.20192 cumulative IPC: 0.21126 (Simulation time: 0 hr 16 min 2 sec) 
Heartbeat CPU  2 instructions:  114000003 cycles:  355400614 heartbeat IPC: 0.17352 cumulative IPC: 0.19590 (Simulation time: 0 hr 16 min 3 sec) 
Heartbeat CPU  0 instructions:  123000002 cycles:  356575327 heartbeat IPC: 0.20158 cumulative IPC: 0.21105 (Simulation time: 0 hr 16 min 6 sec) 
Heartbeat CPU  3 instructions:  125000001 cycles:  358541753 heartbeat IPC: 0.20758 cumulative IPC: 0.21674 (Simulation time: 0 hr 16 min 9 sec) 
Heartbeat CPU  1 instructions:  124000000 cycles:  359264066 heartbeat IPC: 0.21518 cumulative IPC: 0.21131 (Simulation time: 0 hr 16 min 11 sec) 
Heartbeat CPU  2 instructions:  115000000 cycles:  361092793 heartbeat IPC: 0.17568 cumulative IPC: 0.19556 (Simulation time: 0 hr 16 min 14 sec) 
Heartbeat CPU  0 instructions:  124000000 cycles:  361434452 heartbeat IPC: 0.20580 cumulative IPC: 0.21098 (Simulation time: 0 hr 16 min 14 sec) 
Heartbeat CPU  3 instructions:  126000002 cycles:  363290203 heartbeat IPC: 0.21060 cumulative IPC: 0.21665 (Simulation time: 0 hr 16 min 18 sec) 
Heartbeat CPU  1 instructions:  125000001 cycles:  364128997 heartbeat IPC: 0.20555 cumulative IPC: 0.21123 (Simulation time: 0 hr 16 min 19 sec) 
Heartbeat CPU  0 instructions:  125000002 cycles:  366299605 heartbeat IPC: 0.20554 cumulative IPC: 0.21090 (Simulation time: 0 hr 16 min 23 sec) 
Heartbeat CPU  2 instructions:  116000000 cycles:  366769334 heartbeat IPC: 0.17616 cumulative IPC: 0.19523 (Simulation time: 0 hr 16 min 24 sec) 
Heartbeat CPU  3 instructions:  127000002 cycles:  367965228 heartbeat IPC: 0.21390 cumulative IPC: 0.21661 (Simulation time: 0 hr 16 min 26 sec) 
Heartbeat CPU  1 instructions:  126000001 cycles:  368875357 heartbeat IPC: 0.21069 cumulative IPC: 0.21122 (Simulation time: 0 hr 16 min 28 sec) 
Heartbeat CPU  0 instructions:  126000003 cycles:  371040636 heartbeat IPC: 0.21092 cumulative IPC: 0.21090 (Simulation time: 0 hr 16 min 32 sec) 
Heartbeat CPU  2 instructions:  117000003 cycles:  372412945 heartbeat IPC: 0.17719 cumulative IPC: 0.19493 (Simulation time: 0 hr 16 min 35 sec) 
Heartbeat CPU  3 instructions:  128000000 cycles:  372728739 heartbeat IPC: 0.20993 cumulative IPC: 0.21652 (Simulation time: 0 hr 16 min 35 sec) 
Heartbeat CPU  1 instructions:  127000001 cycles:  373704987 heartbeat IPC: 0.20706 cumulative IPC: 0.21116 (Simulation time: 0 hr 16 min 37 sec) 
Heartbeat CPU  0 instructions:  127000002 cycles:  375816193 heartbeat IPC: 0.20940 cumulative IPC: 0.21088 (Simulation time: 0 hr 16 min 41 sec) 
Heartbeat CPU  3 instructions:  129000003 cycles:  377493296 heartbeat IPC: 0.20988 cumulative IPC: 0.21643 (Simulation time: 0 hr 16 min 44 sec) 
Heartbeat CPU  2 instructions:  118000001 cycles:  378137788 heartbeat IPC: 0.17468 cumulative IPC: 0.19460 (Simulation time: 0 hr 16 min 45 sec) 
Heartbeat CPU  1 instructions:  128000000 cycles:  378466667 heartbeat IPC: 0.21001 cumulative IPC: 0.21115 (Simulation time: 0 hr 16 min 46 sec) 
Heartbeat CPU  0 instructions:  128000000 cycles:  380585483 heartbeat IPC: 0.20967 cumulative IPC: 0.21086 (Simulation time: 0 hr 16 min 50 sec) 
Heartbeat CPU  3 instructions:  130000001 cycles:  382322577 heartbeat IPC: 0.20707 cumulative IPC: 0.21630 (Simulation time: 0 hr 16 min 53 sec) 
Heartbeat CPU  1 instructions:  129000002 cycles:  383183605 heartbeat IPC: 0.21200 cumulative IPC: 0.21116 (Simulation time: 0 hr 16 min 54 sec) 
Heartbeat CPU  2 instructions:  119000002 cycles:  383903973 heartbeat IPC: 0.17343 cumulative IPC: 0.19426 (Simulation time: 0 hr 16 min 56 sec) 
Heartbeat CPU  0 instructions:  129000000 cycles:  385264111 heartbeat IPC: 0.21374 cumulative IPC: 0.21090 (Simulation time: 0 hr 16 min 58 sec) 
Heartbeat CPU  3 instructions:  131000001 cycles:  387154946 heartbeat IPC: 0.20694 cumulative IPC: 0.21618 (Simulation time: 0 hr 17 min 2 sec) 
Heartbeat CPU  1 instructions:  130000000 cycles:  387882328 heartbeat IPC: 0.21282 cumulative IPC: 0.21118 (Simulation time: 0 hr 17 min 3 sec) 
Heartbeat CPU  2 instructions:  120000000 cycles:  389549803 heartbeat IPC: 0.17712 cumulative IPC: 0.19399 (Simulation time: 0 hr 17 min 6 sec) 
Heartbeat CPU  0 instructions:  130000001 cycles:  390033565 heartbeat IPC: 0.20967 cumulative IPC: 0.21088 (Simulation time: 0 hr 17 min 7 sec) 
Heartbeat CPU  3 instructions:  132000000 cycles:  391966331 heartbeat IPC: 0.20784 cumulative IPC: 0.21607 (Simulation time: 0 hr 17 min 10 sec) 
Heartbeat CPU  1 instructions:  131000001 cycles:  392728997 heartbeat IPC: 0.20633 cumulative IPC: 0.21111 (Simulation time: 0 hr 17 min 12 sec) 
Heartbeat CPU  0 instructions:  131000002 cycles:  394818682 heartbeat IPC: 0.20898 cumulative IPC: 0.21086 (Simulation time: 0 hr 17 min 16 sec) 
Heartbeat CPU  2 instructions:  121000002 cycles:  395200772 heartbeat IPC: 0.17696 cumulative IPC: 0.19373 (Simulation time: 0 hr 17 min 16 sec) 
Heartbeat CPU  3 instructions:  133000003 cycles:  396787619 heartbeat IPC: 0.20741 cumulative IPC: 0.21595 (Simulation time: 0 hr 17 min 19 sec) 
Heartbeat CPU  1 instructions:  132000000 cycles:  397681955 heartbeat IPC: 0.20190 cumulative IPC: 0.21099 (Simulation time: 0 hr 17 min 21 sec) 
Heartbeat CPU  0 instructions:  132000000 cycles:  399739663 heartbeat IPC: 0.20321 cumulative IPC: 0.21076 (Simulation time: 0 hr 17 min 25 sec) 
Heartbeat CPU  2 instructions:  122000003 cycles:  400913564 heartbeat IPC: 0.17505 cumulative IPC: 0.19344 (Simulation time: 0 hr 17 min 27 sec) 
Heartbeat CPU  3 instructions:  134000002 cycles:  401487434 heartbeat IPC: 0.21277 cumulative IPC: 0.21591 (Simulation time: 0 hr 17 min 28 sec) 
Heartbeat CPU  1 instructions:  133000000 cycles:  402363856 heartbeat IPC: 0.21359 cumulative IPC: 0.21102 (Simulation time: 0 hr 17 min 29 sec) 
Heartbeat CPU  0 instructions:  133000003 cycles:  404478187 heartbeat IPC: 0.21104 cumulative IPC: 0.21076 (Simulation time: 0 hr 17 min 33 sec) 
Heartbeat CPU  3 instructions:  135000002 cycles:  406256476 heartbeat IPC: 0.20969 cumulative IPC: 0.21583 (Simulation time: 0 hr 17 min 37 sec) 
Heartbeat CPU  2 instructions:  123000000 cycles:  406418308 heartbeat IPC: 0.18166 cumulative IPC: 0.19327 (Simulation time: 0 hr 17 min 37 sec) 
[...]
Core_0_L1I_acc_level_6 0
Core_0_L1I_acc_level_7 0
Core_0_L1I_acc_level_8 0
Core_0_L1I_acc_level_9 0

Core_0_L2C_total_access 10666955
Core_0_L2C_total_hit 9269968
Core_0_L2C_total_miss 1396987
Core_0_L2C_loads 8548741
Core_0_L2C_load_hit 7563130
Core_0_L2C_load_miss 985611
Core_0_L2C_RFOs 875940
Core_0_L2C_RFO_hit 475000
Core_0_L2C_RFO_miss 400940
Core_0_L2C_prefetches 0
Core_0_L2C_prefetch_hit 0
Core_0_L2C_prefetch_miss 0
Core_0_L2C_writebacks 1242274
Core_0_L2C_writeback_hit 1231838
Core_0_L2C_writeback_miss 10436
Core_0_L2C_prefetch_requested 0
Core_0_L2C_prefetch_dropped 0
Core_0_L2C_prefetch_issued 0
Core_0_L2C_prefetch_filled 0
Core_0_L2C_prefetch_useful 0
Core_0_L2C_prefetch_useless 0
Core_0_L2C_prefetch_late 0
Core_0_L2C_average_miss_latency 135.58635

Core_0_L2C_rq_access 10389305
Core_0_L2C_rq_forward 0
Core_0_L2C_rq_merged 0
Core_0_L2C_rq_to_cache 10388478
Core_0_L2C_rq_full 0

Core_0_L2C_wq_access 1364998
Core_0_L2C_wq_forward 827
Core_0_L2C_wq_merged 0
Core_0_L2C_wq_to_cache 1364998
Core_0_L2C_wq_full 0

Core_0_L2C_pq_access 0
Core_0_L2C_pq_forward 0
Core_0_L2C_pq_merged 0
Core_0_L2C_pq_to_cache 0
Core_0_L2C_pq_full 0

Core_0_L2C_acc_epochs 206563
Core_0_L2C_acc_level_0 206563
Core_0_L2C_acc_level_1 0
Core_0_L2C_acc_level_2 0
Core_0_L2C_acc_level_3 0
Core_0_L2C_acc_level_4 0
Core_0_L2C_acc_level_5 0
Core_0_L2C_acc_level_6 0
Core_0_L2C_acc_level_7 0
Core_0_L2C_acc_level_8 0
Core_0_L2C_acc_level_9 0

Core_0_LLC_total_access 1906282
Core_0_LLC_total_hit 1243750
Core_0_LLC_total_miss 662532
Core_0_LLC_loads 985609
Core_0_LLC_load_hit 526787
Core_0_LLC_load_miss 458822
Core_0_LLC_RFOs 400921
Core_0_LLC_RFO_hit 258993
Core_0_LLC_RFO_miss 141928
Core_0_LLC_prefetches 0
Core_0_LLC_prefetch_hit 0
Core_0_LLC_prefetch_miss 0
Core_0_LLC_writebacks 519752
Core_0_LLC_writeback_hit 457970
Core_0_LLC_writeback_miss 61782
Core_0_LLC_prefetch_requested 0
Core_0_LLC_prefetch_dropped 0
Core_0_LLC_prefetch_issued 0
Core_0_LLC_prefetch_filled 0
Core_0_LLC_prefetch_useful 0
Core_0_LLC_prefetch_useless 0
Core_0_LLC_prefetch_late 0
Core_0_LLC_average_miss_latency 650.29558

Core_0_LLC_rq_access 5746878
Core_0_LLC_rq_forward 0
Core_0_LLC_rq_merged 0
Core_0_LLC_rq_to_cache 5746781
Core_0_LLC_rq_full 0

Core_0_LLC_wq_access 2083829
Core_0_LLC_wq_forward 97
Core_0_LLC_wq_merged 0
Core_0_LLC_wq_to_cache 2083829
Core_0_LLC_wq_full 0

Core_0_LLC_pq_access 0
Core_0_LLC_pq_forward 0
Core_0_LLC_pq_merged 0
Core_0_LLC_pq_to_cache 0
Core_0_LLC_pq_full 0

Core_0_LLC_acc_epochs 794310
Core_0_LLC_acc_level_0 794310
Core_0_LLC_acc_level_1 0
Core_0_LLC_acc_level_2 0
Core_0_LLC_acc_level_3 0
Core_0_LLC_acc_level_4 0
Core_0_LLC_acc_level_5 0
Core_0_LLC_acc_level_6 0
Core_0_LLC_acc_level_7 0
Core_0_LLC_acc_level_8 0
Core_0_LLC_acc_level_9 0

Core_0_major_page_fault 0
Core_0_minor_page_fault 24018

Core_1_instructions 150000002
Core_1_cycles 710650533
Core_1_IPC 0.21107

Core_1_branch_prediction_accuracy 96.89816
Core_1_branch_MPKI 5.64825
Core_1_average_ROB_occupancy_at_mispredict 85.19253

Core_1_L1D_total_access 24206552
Core_1_L1D_total_hit 21106286
Core_1_L1D_total_miss 3100266
Core_1_L1D_loads 13963668
Core_1_L1D_load_hit 11722300
Core_1_L1D_load_miss 2241368
Core_1_L1D_RFOs 10242884
Core_1_L1D_RFO_hit 9383986
Core_1_L1D_RFO_miss 858898
Core_1_L1D_prefetches 0
Core_1_L1D_prefetch_hit 0
Core_1_L1D_prefetch_miss 0
Core_1_L1D_writebacks 0
Core_1_L1D_writeback_hit 0
Core_1_L1D_writeback_miss 0
Core_1_L1D_prefetch_requested 0
Core_1_L1D_prefetch_dropped 0
Core_1_L1D_prefetch_issued 0
Core_1_L1D_prefetch_filled 0
Core_1_L1D_prefetch_useful 0
Core_1_L1D_prefetch_useless 0
Core_1_L1D_prefetch_late 0
Core_1_L1D_average_miss_latency 117.23507

Core_1_L1D_rq_access 29311221
Core_1_L1D_rq_forward 0
Core_1_L1D_rq_merged 13242702
Core_1_L1D_rq_to_cache 16065432
Core_1_L1D_rq_full 0

Core_1_L1D_wq_access 14882212
Core_1_L1D_wq_forward 3087
Core_1_L1D_wq_merged 43166
Core_1_L1D_wq_to_cache 14839046
Core_1_L1D_wq_full 0

Core_1_L1D_pq_access 0
Core_1_L1D_pq_forward 0
Core_1_L1D_pq_merged 0
Core_1_L1D_pq_to_cache 0
Core_1_L1D_pq_full 0

Core_1_L1D_acc_epochs 205882
Core_1_L1D_acc_level_0 205882
Core_1_L1D_acc_level_1 0
Core_1_L1D_acc_level_2 0
Core_1_L1D_acc_level_3 0
Core_1_L1D_acc_level_4 0
Core_1_L1D_acc_level_5 0
Core_1_L1D_acc_level_6 0
Core_1_L1D_acc_level_7 0
Core_1_L1D_acc_level_8 0
Core_1_L1D_acc_level_9 0

Core_1_L1I_total_access 32456696
Core_1_L1I_total_hit 26186158
Core_1_L1I_total_miss 6270538
Core_1_L1I_loads 32456696
Core_1_L1I_load_hit 26186158
Core_1_L1I_load_miss 6270538
Core_1_L1I_RFOs 0
Core_1_L1I_RFO_hit 0
Core_1_L1I_RFO_miss 0
Core_1_L1I_prefetches 0
Core_1_L1I_prefetch_hit 0
Core_1_L1I_prefetch_miss 0
Core_1_L1I_writebacks 0
Core_1_L1I_writeback_hit 0
Core_1_L1I_writeback_miss 0
Core_1_L1I_prefetch_requested 0
Core_1_L1I_prefetch_dropped 0
Core_1_L1I_prefetch_issued 0
Core_1_L1I_prefetch_filled 0
Core_1_L1I_prefetch_useful 0
Core_1_L1I_prefetch_useless 0
Core_1_L1I_prefetch_late 0
Core_1_L1I_average_miss_latency 94.75809

Core_1_L1I_rq_access 165491290
Core_1_L1I_rq_forward 0
Core_1_L1I_rq_merged 125689660
Core_1_L1I_rq_to_cache 39801630
Core_1_L1I_rq_full 0

Core_1_L1I_wq_access 0
Core_1_L1I_wq_forward 0
Core_1_L1I_wq_merged 0
Core_1_L1I_wq_to_cache 0
Core_1_L1I_wq_full 0

Core_1_L1I_pq_access 0
Core_1_L1I_pq_forward 0
Core_1_L1I_pq_merged 0
Core_1_L1I_pq_to_cache 0
Core_1_L1I_pq_full 0

Core_1_L1I_acc_epochs 205882
Core_1_L1I_acc_level_0 205882
Core_1_L1I_acc_level_1 0
Core_1_L1I_acc_level_2 0
Core_1_L1I_acc_level_3 0
Core_1_L1I_acc_level_4 0
Core_1_L1I_acc_level_5 0
Core_1_L1I_acc_level_6 0
Core_1_L1I_acc_level_7 0
Core_1_L1I_acc_level_8 0
Core_1_L1I_acc_level_9 0

Core_1_L2C_total_access 10577415
Core_1_L2C_total_hit 9218524
Core_1_L2C_total_miss 1358891
Core_1_L2C_loads 8511632
Core_1_L2C_load_hit 7555411
Core_1_L2C_load_miss 956221
Core_1_L2C_RFOs 858472
Core_1_L2C_RFO_hit 466634
Core_1_L2C_RFO_miss 391838
Core_1_L2C_prefetches 0
Core_1_L2C_prefetch_hit 0
Core_1_L2C_prefetch_miss 0
Core_1_L2C_writebacks 1207311
Core_1_L2C_writeback_hit 1196479
Core_1_L2C_writeback_miss 10832
Core_1_L2C_prefetch_requested 0
Core_1_L2C_prefetch_dropped 0
Core_1_L2C_prefetch_issued 0
Core_1_L2C_prefetch_filled 0
Core_1_L2C_prefetch_useful 0
Core_1_L2C_prefetch_useless 0
Core_1_L2C_prefetch_late 0
Core_1_L2C_average_miss_latency 137.14189

Core_1_L2C_rq_access 10354914
Core_1_L2C_rq_forward 0
Core_1_L2C_rq_merged 0
Core_1_L2C_rq_to_cache 10354157
Core_1_L2C_rq_full 0

Core_1_L2C_wq_access 1334846
Core_1_L2C_wq_forward 757
Core_1_L2C_wq_merged 0
Core_1_L2C_wq_to_cache 1334846
Core_1_L2C_wq_full 0

Core_1_L2C_pq_access 0
Core_1_L2C_pq_forward 0
Core_1_L2C_pq_merged 0
Core_1_L2C_pq_to_cache 0
Core_1_L2C_pq_full 0

Core_1_L2C_acc_epochs 205882
Core_1_L2C_acc_level_0 205882
Core_1_L2C_acc_level_1 0
Core_1_L2C_acc_level_2 0
Core_1_L2C_acc_level_3 0
Core_1_L2C_acc_level_4 0
Core_1_L2C_acc_level_5 0
Core_1_L2C_acc_level_6 0
Core_1_L2C_acc_level_7 0
Core_1_L2C_acc_level_8 0
Core_1_L2C_acc_level_9 0

Core_1_LLC_total_access 1855361
Core_1_LLC_total_hit 1211981
Core_1_LLC_total_miss 643380
Core_1_LLC_loads 956220
Core_1_LLC_load_hit 507314
Core_1_LLC_load_miss 448906
Core_1_LLC_RFOs 391828
Core_1_LLC_RFO_hit 255736
Core_1_LLC_RFO_miss 136092
Core_1_LLC_prefetches 0
Core_1_LLC_prefetch_hit 0
Core_1_LLC_prefetch_miss 0
Core_1_LLC_writebacks 507313
Core_1_LLC_writeback_hit 448931
Core_1_LLC_writeback_miss 58382
Core_1_LLC_prefetch_requested 0
Core_1_LLC_prefetch_dropped 0
Core_1_LLC_prefetch_issued 0
Core_1_LLC_prefetch_filled 0
Core_1_LLC_prefetch_useful 0
Core_1_LLC_prefetch_useless 0
Core_1_LLC_prefetch_late 0
Core_1_LLC_average_miss_latency 669.65344

Core_1_LLC_rq_access 5746878
Core_1_LLC_rq_forward 0
Core_1_LLC_rq_merged 0
Core_1_LLC_rq_to_cache 5746781
Core_1_LLC_rq_full 0

Core_1_LLC_wq_access 2083829
Core_1_LLC_wq_forward 97
Core_1_LLC_wq_merged 0
Core_1_LLC_wq_to_cache 2083829
Core_1_LLC_wq_full 0

Core_1_LLC_pq_access 0
Core_1_LLC_pq_forward 0
Core_1_LLC_pq_merged 0
Core_1_LLC_pq_to_cache 0
Core_1_LLC_pq_full 0

Core_1_LLC_acc_epochs 794310
Core_1_LLC_acc_level_0 794310
Core_1_LLC_acc_level_1 0
Core_1_LLC_acc_level_2 0
Core_1_LLC_acc_level_3 0
Core_1_LLC_acc_level_4 0
Core_1_LLC_acc_level_5 0
Core_1_LLC_acc_level_6 0
Core_1_LLC_acc_level_7 0
Core_1_LLC_acc_level_8 0
Core_1_LLC_acc_level_9 0

Core_1_major_page_fault 0
Core_1_minor_page_fault 23534

Core_2_instructions 150000000
Core_2_cycles 784664692
Core_2_IPC 0.19116

Core_2_branch_prediction_accuracy 96.09904
Core_2_branch_MPKI 7.16625
Core_2_average_ROB_occupancy_at_mispredict 85.52631

Core_2_L1D_total_access 22757007
Core_2_L1D_total_hit 19748581
Core_2_L1D_total_miss 3008426
Core_2_L1D_loads 13886199
Core_2_L1D_load_hit 11659376
Core_2_L1D_load_miss 2226823
Core_2_L1D_RFOs 8870808
Core_2_L1D_RFO_hit 8089205
Core_2_L1D_RFO_miss 781603
Core_2_L1D_prefetches 0
Core_2_L1D_prefetch_hit 0
Core_2_L1D_prefetch_miss 0
Core_2_L1D_writebacks 0
Core_2_L1D_writeback_hit 0
Core_2_L1D_writeback_miss 0
Core_2_L1D_prefetch_requested 0
Core_2_L1D_prefetch_dropped 0
Core_2_L1D_prefetch_issued 0
Core_2_L1D_prefetch_filled 0
Core_2_L1D_prefetch_useful 0
Core_2_L1D_prefetch_useless 0
Core_2_L1D_prefetch_late 0
Core_2_L1D_average_miss_latency 103.23607

Core_2_L1D_rq_access 26133394
Core_2_L1D_rq_forward 0
Core_2_L1D_rq_merged 11133932
Core_2_L1D_rq_to_cache 14994240
Core_2_L1D_rq_full 0

Core_2_L1D_wq_access 11493411
Core_2_L1D_wq_forward 5222
Core_2_L1D_wq_merged 35838
Core_2_L1D_wq_to_cache 11457573
Core_2_L1D_wq_full 0

Core_2_L1D_pq_access 0
Core_2_L1D_pq_forward 0
Core_2_L1D_pq_merged 0
Core_2_L1D_pq_to_cache 0
Core_2_L1D_pq_full 0

Core_2_L1D_acc_epochs 209747
Core_2_L1D_acc_level_0 209747
Core_2_L1D_acc_level_1 0
Core_2_L1D_acc_level_2 0
Core_2_L1D_acc_level_3 0
Core_2_L1D_acc_level_4 0
Core_2_L1D_acc_level_5 0
Core_2_L1D_acc_level_6 0
Core_2_L1D_acc_level_7 0
Core_2_L1D_acc_level_8 0
Core_2_L1D_acc_level_9 0

Core_2_L1I_total_access 30111333
Core_2_L1I_total_hit 25073643
Core_2_L1I_total_miss 5037690
Core_2_L1I_loads 30111333
Core_2_L1I_load_hit 25073643
Core_2_L1I_load_miss 5037690
Core_2_L1I_RFOs 0
Core_2_L1I_RFO_hit 0
Core_2_L1I_RFO_miss 0
Core_2_L1I_prefetches 0
Core_2_L1I_prefetch_hit 0
Core_2_L1I_prefetch_miss 0
Core_2_L1I_writebacks 0
Core_2_L1I_writeback_hit 0
Core_2_L1I_writeback_miss 0
Core_2_L1I_prefetch_requested 0
Core_2_L1I_prefetch_dropped 0
Core_2_L1I_prefetch_issued 0
Core_2_L1I_prefetch_filled 0
Core_2_L1I_prefetch_useful 0
Core_2_L1I_prefetch_useless 0
Core_2_L1I_prefetch_late 0
Core_2_L1I_average_miss_latency 88.70357

Core_2_L1I_rq_access 149999952
Core_2_L1I_rq_forward 0
Core_2_L1I_rq_merged 117147147
Core_2_L1I_rq_to_cache 32852805
Core_2_L1I_rq_full 0

Core_2_L1I_wq_access 0
Core_2_L1I_wq_forward 0
Core_2_L1I_wq_merged 0
Core_2_L1I_wq_to_cache 0
Core_2_L1I_wq_full 0

Core_2_L1I_pq_access 0
Core_2_L1I_pq_forward 0
Core_2_L1I_pq_merged 0
Core_2_L1I_pq_to_cache 0
Core_2_L1I_pq_full 0

Core_2_L1I_acc_epochs 209747
Core_2_L1I_acc_level_0 209747
Core_2_L1I_acc_level_1 0
Core_2_L1I_acc_level_2 0
Core_2_L1I_acc_level_3 0
Core_2_L1I_acc_level_4 0
Core_2_L1I_acc_level_5 0
Core_2_L1I_acc_level_6 0
Core_2_L1I_acc_level_7 0
Core_2_L1I_acc_level_8 0
Core_2_L1I_acc_level_9 0

Core_2_L2C_total_access 9333827
Core_2_L2C_total_hit 8140235
Core_2_L2C_total_miss 1193592
Core_2_L2C_loads 7264214
Core_2_L2C_load_hit 6320190
Core_2_L2C_load_miss 944024
Core_2_L2C_RFOs 781212
Core_2_L2C_RFO_hit 542461
Core_2_L2C_RFO_miss 238751
Core_2_L2C_prefetches 0
Core_2_L2C_prefetch_hit 0
Core_2_L2C_prefetch_miss 0
Core_2_L2C_writebacks 1288401
Core_2_L2C_writeback_hit 1277584
Core_2_L2C_writeback_miss 10817
Core_2_L2C_prefetch_requested 0
Core_2_L2C_prefetch_dropped 0
Core_2_L2C_prefetch_issued 0
Core_2_L2C_prefetch_filled 0
Core_2_L2C_prefetch_useful 0
Core_2_L2C_prefetch_useless 0
Core_2_L2C_prefetch_late 0
Core_2_L2C_average_miss_latency 123.22765

Core_2_L2C_rq_access 8046116
Core_2_L2C_rq_forward 0
Core_2_L2C_rq_merged 0
Core_2_L2C_rq_to_cache 8045426
Core_2_L2C_rq_full 0

Core_2_L2C_wq_access 1288401
Core_2_L2C_wq_forward 690
Core_2_L2C_wq_merged 0
Core_2_L2C_wq_to_cache 1288401
Core_2_L2C_wq_full 0

Core_2_L2C_pq_access 0
Core_2_L2C_pq_forward 0
Core_2_L2C_pq_merged 0
Core_2_L2C_pq_to_cache 0
Core_2_L2C_pq_full 0

Core_2_L2C_acc_epochs 209747
Core_2_L2C_acc_level_0 209747
Core_2_L2C_acc_level_1 0
Core_2_L2C_acc_level_2 0
Core_2_L2C_acc_level_3 0
Core_2_L2C_acc_level_4 0
Core_2_L2C_acc_level_5 0
Core_2_L2C_acc_level_6 0
Core_2_L2C_acc_level_7 0
Core_2_L2C_acc_level_8 0
Core_2_L2C_acc_level_9 0

Core_2_LLC_total_access 1570604
Core_2_LLC_total_hit 1018501
Core_2_LLC_total_miss 552103
Core_2_LLC_loads 944010
Core_2_LLC_load_hit 514833
Core_2_LLC_load_miss 429177
Core_2_LLC_RFOs 238723
Core_2_LLC_RFO_hit 153552
Core_2_LLC_RFO_miss 85171
Core_2_LLC_prefetches 0
Core_2_LLC_prefetch_hit 0
Core_2_LLC_prefetch_miss 0
Core_2_LLC_writebacks 387871
Core_2_LLC_writeback_hit 350116
Core_2_LLC_writeback_miss 37755
Core_2_LLC_prefetch_requested 0
Core_2_LLC_prefetch_dropped 0
Core_2_LLC_prefetch_issued 0
Core_2_LLC_prefetch_filled 0
Core_2_LLC_prefetch_useful 0
Core_2_LLC_prefetch_useless 0
Core_2_LLC_prefetch_late 0
Core_2_LLC_average_miss_latency 780.36459

Core_2_LLC_rq_access 5746878
Core_2_LLC_rq_forward 0
Core_2_LLC_rq_merged 0
Core_2_LLC_rq_to_cache 5746781
Core_2_LLC_rq_full 0

Core_2_LLC_wq_access 2083829
Core_2_LLC_wq_forward 97
Core_2_LLC_wq_merged 0
Core_2_LLC_wq_to_cache 2083829
Core_2_LLC_wq_full 0

Core_2_LLC_pq_access 0
Core_2_LLC_pq_forward 0
Core_2_LLC_pq_merged 0
Core_2_LLC_pq_to_cache 0
Core_2_LLC_pq_full 0

Core_2_LLC_acc_epochs 794310
Core_2_LLC_acc_level_0 794310
Core_2_LLC_acc_level_1 0
Core_2_LLC_acc_level_2 0
Core_2_LLC_acc_level_3 0
Core_2_LLC_acc_level_4 0
Core_2_LLC_acc_level_5 0
Core_2_LLC_acc_level_6 0
Core_2_LLC_acc_level_7 0
Core_2_LLC_acc_level_8 0
Core_2_LLC_acc_level_9 0

Core_2_major_page_fault 0
Core_2_minor_page_fault 18236

Core_3_instructions 150000002
Core_3_cycles 693825649
Core_3_IPC 0.21619

Core_3_branch_prediction_accuracy 96.83524
Core_3_branch_MPKI 5.73324
Core_3_average_ROB_occupancy_at_mispredict 82.60588

Core_3_L1D_total_access 23419984
Core_3_L1D_total_hit 20399929
Core_3_L1D_total_miss 3020055
Core_3_L1D_loads 13561757
Core_3_L1D_load_hit 11361568
Core_3_L1D_load_miss 2200189
Core_3_L1D_RFOs 9858227
Core_3_L1D_RFO_hit 9038361
Core_3_L1D_RFO_miss 819866
Core_3_L1D_prefetches 0
Core_3_L1D_prefetch_hit 0
Core_3_L1D_prefetch_miss 0
Core_3_L1D_writebacks 0
Core_3_L1D_writeback_hit 0
Core_3_L1D_writeback_miss 0
Core_3_L1D_prefetch_requested 0
Core_3_L1D_prefetch_dropped 0
Core_3_L1D_prefetch_issued 0
Core_3_L1D_prefetch_filled 0
Core_3_L1D_prefetch_useful 0
Core_3_L1D_prefetch_useless 0
Core_3_L1D_prefetch_late 0
Core_3_L1D_average_miss_latency 121.50406

Core_3_L1D_rq_access 29600969
Core_3_L1D_rq_forward 0
Core_3_L1D_rq_merged 13404124
Core_3_L1D_rq_to_cache 16193639
Core_3_L1D_rq_full 0

Core_3_L1D_wq_access 14638012
Core_3_L1D_wq_forward 3206
Core_3_L1D_wq_merged 43162
Core_3_L1D_wq_to_cache 14594850
Core_3_L1D_wq_full 0

Core_3_L1D_pq_access 0
Core_3_L1D_pq_forward 0
Core_3_L1D_pq_merged 0
Core_3_L1D_pq_to_cache 0
Core_3_L1D_pq_full 0

Core_3_L1D_acc_epochs 213998
Core_3_L1D_acc_level_0 213998
Core_3_L1D_acc_level_1 0
Core_3_L1D_acc_level_2 0
Core_3_L1D_acc_level_3 0
Core_3_L1D_acc_level_4 0
Core_3_L1D_acc_level_5 0
Core_3_L1D_acc_level_6 0
Core_3_L1D_acc_level_7 0
Core_3_L1D_acc_level_8 0
Core_3_L1D_acc_level_9 0

Core_3_L1I_total_access 32204043
Core_3_L1I_total_hit 26190666
Core_3_L1I_total_miss 6013377
Core_3_L1I_loads 32204043
Core_3_L1I_load_hit 26190666
Core_3_L1I_load_miss 6013377
Core_3_L1I_RFOs 0
Core_3_L1I_RFO_hit 0
Core_3_L1I_RFO_miss 0
Core_3_L1I_prefetches 0
Core_3_L1I_prefetch_hit 0
Core_3_L1I_prefetch_miss 0
Core_3_L1I_writebacks 0
Core_3_L1I_writeback_hit 0
Core_3_L1I_writeback_miss 0
Core_3_L1I_prefetch_requested 0
Core_3_L1I_prefetch_dropped 0
Core_3_L1I_prefetch_issued 0
Core_3_L1I_prefetch_filled 0
Core_3_L1I_prefetch_useful 0
Core_3_L1I_prefetch_useless 0
Core_3_L1I_prefetch_late 0
Core_3_L1I_average_miss_latency 96.95475

Core_3_L1I_rq_access 168941413
Core_3_L1I_rq_forward 0
Core_3_L1I_rq_merged 128702856
Core_3_L1I_rq_to_cache 40238557
Core_3_L1I_rq_full 0

Core_3_L1I_wq_access 0
Core_3_L1I_wq_forward 0
Core_3_L1I_wq_merged 0
Core_3_L1I_wq_to_cache 0
Core_3_L1I_wq_full 0

Core_3_L1I_pq_access 0
Core_3_L1I_pq_forward 0
Core_3_L1I_pq_merged 0
Core_3_L1I_pq_to_cache 0
Core_3_L1I_pq_full 0

Core_3_L1I_acc_epochs 213998
Core_3_L1I_acc_level_0 213998
Core_3_L1I_acc_level_1 0
Core_3_L1I_acc_level_2 0
Core_3_L1I_acc_level_3 0
Core_3_L1I_acc_level_4 0
Core_3_L1I_acc_level_5 0
Core_3_L1I_acc_level_6 0
Core_3_L1I_acc_level_7 0
Core_3_L1I_acc_level_8 0
Core_3_L1I_acc_level_9 0

Core_3_L2C_total_access 10186942
Core_3_L2C_total_hit 8802420
Core_3_L2C_total_miss 1384522
Core_3_L2C_loads 8213299
Core_3_L2C_load_hit 7219072
Core_3_L2C_load_miss 994227
Core_3_L2C_RFOs 819486
Core_3_L2C_RFO_hit 441145
Core_3_L2C_RFO_miss 378341
Core_3_L2C_prefetches 0
Core_3_L2C_prefetch_hit 0
Core_3_L2C_prefetch_miss 0
Core_3_L2C_writebacks 1154157
Core_3_L2C_writeback_hit 1142203
Core_3_L2C_writeback_miss 11954
Core_3_L2C_prefetch_requested 0
Core_3_L2C_prefetch_dropped 0
Core_3_L2C_prefetch_issued 0
Core_3_L2C_prefetch_filled 0
Core_3_L2C_prefetch_useful 0
Core_3_L2C_prefetch_useless 0
Core_3_L2C_prefetch_late 0
Core_3_L2C_average_miss_latency 140.29536

Core_3_L2C_rq_access 10233207
Core_3_L2C_rq_forward 0
Core_3_L2C_rq_merged 0
Core_3_L2C_rq_to_cache 10232484
Core_3_L2C_rq_full 0

Core_3_L2C_wq_access 1308922
Core_3_L2C_wq_forward 723
Core_3_L2C_wq_merged 0
Core_3_L2C_wq_to_cache 1308922
Core_3_L2C_wq_full 0

Core_3_L2C_pq_access 0
Core_3_L2C_pq_forward 0
Core_3_L2C_pq_merged 0
Core_3_L2C_pq_to_cache 0
Core_3_L2C_pq_full 0

Core_3_L2C_acc_epochs 213998
Core_3_L2C_acc_level_0 213998
Core_3_L2C_acc_level_1 0
Core_3_L2C_acc_level_2 0
Core_3_L2C_acc_level_3 0
Core_3_L2C_acc_level_4 0
Core_3_L2C_acc_level_5 0
Core_3_L2C_acc_level_6 0
Core_3_L2C_acc_level_7 0
Core_3_L2C_acc_level_8 0
Core_3_L2C_acc_level_9 0

Core_3_LLC_total_access 1866158
Core_3_LLC_total_hit 1193700
Core_3_LLC_total_miss 672458
Core_3_LLC_loads 994224
Core_3_LLC_load_hit 508509
Core_3_LLC_load_miss 485715
Core_3_LLC_RFOs 378328
Core_3_LLC_RFO_hit 248239
Core_3_LLC_RFO_miss 130089
Core_3_LLC_prefetches 0
Core_3_LLC_prefetch_hit 0
Core_3_LLC_prefetch_miss 0
Core_3_LLC_writebacks 493606
Core_3_LLC_writeback_hit 436952
Core_3_LLC_writeback_miss 56654
Core_3_LLC_prefetch_requested 0
Core_3_LLC_prefetch_dropped 0
Core_3_LLC_prefetch_issued 0
Core_3_LLC_prefetch_filled 0
Core_3_LLC_prefetch_useful 0
Core_3_LLC_prefetch_useless 0
Core_3_LLC_prefetch_late 0
Core_3_LLC_average_miss_latency 640.69672

Core_3_LLC_rq_access 5746878
Core_3_LLC_rq_forward 0
Core_3_LLC_rq_merged 0
Core_3_LLC_rq_to_cache 5746781
Core_3_LLC_rq_full 0

Core_3_LLC_wq_access 2083829
Core_3_LLC_wq_forward 97
Core_3_LLC_wq_merged 0
Core_3_LLC_wq_to_cache 2083829
Core_3_LLC_wq_full 0

Core_3_LLC_pq_access 0
Core_3_LLC_pq_forward 0
Core_3_LLC_pq_merged 0
Core_3_LLC_pq_to_cache 0
Core_3_LLC_pq_full 0

Core_3_LLC_acc_epochs 794310
Core_3_LLC_acc_level_0 794310
Core_3_LLC_acc_level_1 0
Core_3_LLC_acc_level_2 0
Core_3_LLC_acc_level_3 0
Core_3_LLC_acc_level_4 0
Core_3_LLC_acc_level_5 0
Core_3_LLC_acc_level_6 0
Core_3_LLC_acc_level_7 0
Core_3_LLC_acc_level_8 0
Core_3_LLC_acc_level_9 0

Core_3_major_page_fault 0
Core_3_minor_page_fault 24231

Channel_0_RQ_row_buffer_hit 319849
Channel_0_RQ_row_buffer_miss 935729
Channel_0_WQ_row_buffer_hit 65574
Channel_0_WQ_row_buffer_miss 265013
Channel_0_WQ_full 0
Channel_0_dbus_congested 278003

Channel_1_RQ_row_buffer_hit 319276
Channel_1_RQ_row_buffer_miss 933979
Channel_1_WQ_row_buffer_hit 65111
Channel_1_WQ_row_buffer_miss 264879
Channel_1_WQ_full 0
Channel_1_dbus_congested 275403

avg_congested_cycle 10

DRAM_bw_pochs 3177238
DRAM_bw_level_0 3057442
DRAM_bw_level_1 109261
DRAM_bw_level_2 10052
DRAM_bw_level_3 483
