*************************************************
   ChampSim Multicore Out-of-Order Simulator
   Last compiled: Mar 31 2025 20:14:32
*************************************************
parsing config file: /data3/config/dspatch.ini

trace_0 /data3/STREAMING/traces/streaming_phase3_core0.trace.xz
trace_1 /data3/STREAMING/traces/streaming_phase3_core1.trace.xz
trace_2 /data3/STREAMING/traces/streaming_phase3_core2.trace.xz
trace_3 /data3/STREAMING/traces/streaming_phase3_core3.trace.xz
adding L2C_PREFETCHER: DSPatch
adding L2C_PREFETCHER: DSPatch
adding L2C_PREFETCHER: DSPatch
adding L2C_PREFETCHER: DSPatch
Initialize SHIP state
warmup_instructions 50000000
simulation_instructions 150000000
champsim_seed 8858
measure_ipc 0
measure_ipc_epoch 1000
measure_dram_bw 1
measure_dram_bw_epoch 256
measure_cache_acc 1
measure_cache_acc_epoch 1024
l1d_perfect 0
l2c_perfect 0
llc_perfect 0
l1d_semi_perfect 0
l2c_semi_perfect 0
llc_semi_perfect 0
semi_perfect_cache_page_buffer_size 64

num_cpus 4
cpu_freq 4000
dram_io_freq 2400
page_size 4096
block_size 64
max_read_per_cycle 8
max_fill_per_cycle 1
dram_channels 2
log2_dram_channels 1
dram_ranks 1
dram_banks 8
dram_rows 65536
dram_columns 128
dram_row_size 8
dram_size 8192
dram_pages 2097152

fetch_width 6
decode_width 6
exec_width 4
lq_width 2
sq_width 2
retire_width 4
scheduler_size 128
branch_mispredict_penalty 20
rob_size 256
lq_size 72
sq_size 56
num_instr_destinations_sparc 4
num_instr_destinations 2
num_instr_sources 4

itlb_set 16
itlb_way 8
itlb_rq_size 16
itlb_wq_size 16
itlb_pq_size 0
itlb_mshr_size 8
itlb_latency 1

dtlb_set 16
dtlb_way 4
dtlb_rq_size 16
dtlb_wq_size 16
dtlb_pq_size 0
dtlb_mshr_size 8
dtlb_latency 1

stlb_set 128
stlb_way 12
stlb_rq_size 32
stlb_wq_size 32
stlb_pq_size 0
stlb_mshr_size 16
stlb_latency 8

l1i_size 32
l1i_set 64
l1i_way 8
l1i_rq_size 64
l1i_wq_size 64
l1i_pq_size 8
l1i_mshr_size 8
l1i_latency 1

l1d_size 32
l1d_set 64
l1d_way 8
l1d_rq_size 64
l1d_wq_size 64
l1d_pq_size 8
l1d_mshr_size 16
l1d_latency 4

l2c_size 256
l2c_set 512
l2c_way 8
l2c_rq_size 32
l2c_wq_size 32
l2c_pq_size 32
l2c_mshr_size 32
l2c_latency 10

llc_size 8192
llc_set 8192
llc_way 16
llc_rq_size 128
llc_wq_size 128
llc_pq_size 128
llc_mshr_size 256
llc_latency 20

dram_channel_width 8
dram_wq_size 64
dram_rq_size 64
tRP 15
tRCD 15
tCAS 12.5
dram_dbus_turn_around_time 30
dram_write_high_wm 56
dram_write_low_wm 48
min_dram_writes_per_switch 16
dram_mtps 2400
dram_dbus_return_time 13

dspatch_log2_region_size 11
dspatch_num_cachelines_in_region 32
dspatch_pb_size 64
dspatch_num_spt_entries 256
dspatch_compression_granularity 2
dspatch_pred_throttle_bw_thr 3
dspatch_bitmap_selection_policy 3
dspatch_sig_type 1
dspatch_sig_hash_type 2
dspatch_or_count_max 3
dspatch_measure_covP_max 3
dspatch_measure_accP_max 3
dspatch_acc_thr 50
dspatch_cov_thr 50
dspatch_enable_pref_buffer 1
dspatch_pref_buffer_size 256
dspatch_pref_degree 4


Heartbeat CPU  3 instructions:    1000000 cycles:     640406 heartbeat IPC: 1.56151 cumulative IPC: 1.56151 (Simulation time: 0 hr 0 min 7 sec) 
Heartbeat CPU  0 instructions:    1000000 cycles:     656570 heartbeat IPC: 1.52307 cumulative IPC: 1.52307 (Simulation time: 0 hr 0 min 7 sec) 
Heartbeat CPU  1 instructions:    1000001 cycles:     672966 heartbeat IPC: 1.48596 cumulative IPC: 1.48596 (Simulation time: 0 hr 0 min 7 sec) 
Heartbeat CPU  2 instructions:    1000000 cycles:     762299 heartbeat IPC: 1.31182 cumulative IPC: 1.31182 (Simulation time: 0 hr 0 min 8 sec) 
Heartbeat CPU  3 instructions:    2000000 cycles:    1207392 heartbeat IPC: 1.76371 cumulative IPC: 1.65646 (Simulation time: 0 hr 0 min 14 sec) 
Heartbeat CPU  1 instructions:    2000001 cycles:    1219863 heartbeat IPC: 1.82850 cumulative IPC: 1.63953 (Simulation time: 0 hr 0 min 14 sec) 
Heartbeat CPU  0 instructions:    2000002 cycles:    1223513 heartbeat IPC: 1.76385 cumulative IPC: 1.63464 (Simulation time: 0 hr 0 min 14 sec) 
Heartbeat CPU  2 instructions:    2000002 cycles:    1394847 heartbeat IPC: 1.58091 cumulative IPC: 1.43385 (Simulation time: 0 hr 0 min 16 sec) 
Heartbeat CPU  1 instructions:    3000003 cycles:    1740761 heartbeat IPC: 1.91977 cumulative IPC: 1.72339 (Simulation time: 0 hr 0 min 21 sec) 
Heartbeat CPU  3 instructions:    3000002 cycles:    1749340 heartbeat IPC: 1.84520 cumulative IPC: 1.71493 (Simulation time: 0 hr 0 min 21 sec) 
Heartbeat CPU  0 instructions:    3000002 cycles:    1772631 heartbeat IPC: 1.82110 cumulative IPC: 1.69240 (Simulation time: 0 hr 0 min 21 sec) 
Heartbeat CPU  2 instructions:    3000002 cycles:    2015797 heartbeat IPC: 1.61044 cumulative IPC: 1.48825 (Simulation time: 0 hr 0 min 25 sec) 
Heartbeat CPU  1 instructions:    4000000 cycles:    2270276 heartbeat IPC: 1.88851 cumulative IPC: 1.76190 (Simulation time: 0 hr 0 min 28 sec) 
Heartbeat CPU  3 instructions:    4000000 cycles:    2285931 heartbeat IPC: 1.86361 cumulative IPC: 1.74983 (Simulation time: 0 hr 0 min 28 sec) 
Heartbeat CPU  0 instructions:    4000000 cycles:    2320136 heartbeat IPC: 1.82646 cumulative IPC: 1.72404 (Simulation time: 0 hr 0 min 29 sec) 
Heartbeat CPU  2 instructions:    4000000 cycles:    2624959 heartbeat IPC: 1.64160 cumulative IPC: 1.52383 (Simulation time: 0 hr 0 min 33 sec) 
Heartbeat CPU  1 instructions:    5000000 cycles:    2804960 heartbeat IPC: 1.87026 cumulative IPC: 1.78256 (Simulation time: 0 hr 0 min 36 sec) 
Heartbeat CPU  3 instructions:    5000003 cycles:    2811452 heartbeat IPC: 1.90288 cumulative IPC: 1.77844 (Simulation time: 0 hr 0 min 36 sec) 
Heartbeat CPU  0 instructions:    5000000 cycles:    2840541 heartbeat IPC: 1.92158 cumulative IPC: 1.76023 (Simulation time: 0 hr 0 min 36 sec) 
Heartbeat CPU  2 instructions:    5000000 cycles:    3215589 heartbeat IPC: 1.69311 cumulative IPC: 1.55493 (Simulation time: 0 hr 0 min 42 sec) 
Heartbeat CPU  3 instructions:    6000003 cycles:    3301956 heartbeat IPC: 2.03872 cumulative IPC: 1.81711 (Simulation time: 0 hr 0 min 43 sec) 
Heartbeat CPU  0 instructions:    6000000 cycles:    3345379 heartbeat IPC: 1.98083 cumulative IPC: 1.79352 (Simulation time: 0 hr 0 min 43 sec) 
Heartbeat CPU  1 instructions:    6000001 cycles:    3347442 heartbeat IPC: 1.84338 cumulative IPC: 1.79241 (Simulation time: 0 hr 0 min 44 sec) 
Heartbeat CPU  2 instructions:    6000003 cycles:    3807429 heartbeat IPC: 1.68965 cumulative IPC: 1.57587 (Simulation time: 0 hr 0 min 50 sec) 
Heartbeat CPU  3 instructions:    7000002 cycles:    3807557 heartbeat IPC: 1.97784 cumulative IPC: 1.83845 (Simulation time: 0 hr 0 min 50 sec) 
Heartbeat CPU  0 instructions:    7000002 cycles:    3857907 heartbeat IPC: 1.95112 cumulative IPC: 1.81446 (Simulation time: 0 hr 0 min 51 sec) 
Heartbeat CPU  1 instructions:    7000001 cycles:    3883573 heartbeat IPC: 1.86522 cumulative IPC: 1.80246 (Simulation time: 0 hr 0 min 51 sec) 
Heartbeat CPU  3 instructions:    8000000 cycles:    4319871 heartbeat IPC: 1.95192 cumulative IPC: 1.85191 (Simulation time: 0 hr 0 min 57 sec) 
Heartbeat CPU  0 instructions:    8000000 cycles:    4378946 heartbeat IPC: 1.91924 cumulative IPC: 1.82692 (Simulation time: 0 hr 0 min 58 sec) 
Heartbeat CPU  1 instructions:    8000000 cycles:    4407942 heartbeat IPC: 1.90705 cumulative IPC: 1.81491 (Simulation time: 0 hr 0 min 59 sec) 
Heartbeat CPU  2 instructions:    7000001 cycles:    4428074 heartbeat IPC: 1.61122 cumulative IPC: 1.58082 (Simulation time: 0 hr 0 min 59 sec) 
Heartbeat CPU  3 instructions:    9000002 cycles:    4836534 heartbeat IPC: 1.93550 cumulative IPC: 1.86084 (Simulation time: 0 hr 1 min 5 sec) 
Heartbeat CPU  0 instructions:    9000003 cycles:    4931903 heartbeat IPC: 1.80846 cumulative IPC: 1.82485 (Simulation time: 0 hr 1 min 6 sec) 
Heartbeat CPU  1 instructions:    9000001 cycles:    4937858 heartbeat IPC: 1.88709 cumulative IPC: 1.82265 (Simulation time: 0 hr 1 min 6 sec) 
Heartbeat CPU  2 instructions:    8000000 cycles:    5032948 heartbeat IPC: 1.65324 cumulative IPC: 1.58953 (Simulation time: 0 hr 1 min 7 sec) 
Heartbeat CPU  3 instructions:   10000001 cycles:    5378385 heartbeat IPC: 1.84552 cumulative IPC: 1.85929 (Simulation time: 0 hr 1 min 12 sec) 
Heartbeat CPU  0 instructions:   10000002 cycles:    5465731 heartbeat IPC: 1.87326 cumulative IPC: 1.82958 (Simulation time: 0 hr 1 min 14 sec) 
Heartbeat CPU  1 instructions:   10000001 cycles:    5474496 heartbeat IPC: 1.86345 cumulative IPC: 1.82665 (Simulation time: 0 hr 1 min 14 sec) 
Heartbeat CPU  2 instructions:    9000000 cycles:    5597891 heartbeat IPC: 1.77009 cumulative IPC: 1.60775 (Simulation time: 0 hr 1 min 16 sec) 
Heartbeat CPU  3 instructions:   11000002 cycles:    5918857 heartbeat IPC: 1.85024 cumulative IPC: 1.85847 (Simulation time: 0 hr 1 min 20 sec) 
Heartbeat CPU  0 instructions:   11000000 cycles:    5935224 heartbeat IPC: 2.12995 cumulative IPC: 1.85334 (Simulation time: 0 hr 1 min 21 sec) 
Heartbeat CPU  1 instructions:   11000000 cycles:    5994510 heartbeat IPC: 1.92302 cumulative IPC: 1.83501 (Simulation time: 0 hr 1 min 22 sec) 
Heartbeat CPU  2 instructions:   10000003 cycles:    6158119 heartbeat IPC: 1.78499 cumulative IPC: 1.62387 (Simulation time: 0 hr 1 min 25 sec) 
Heartbeat CPU  3 instructions:   12000000 cycles:    6431398 heartbeat IPC: 1.95106 cumulative IPC: 1.86585 (Simulation time: 0 hr 1 min 29 sec) 
Heartbeat CPU  0 instructions:   12000000 cycles:    6448707 heartbeat IPC: 1.94748 cumulative IPC: 1.86084 (Simulation time: 0 hr 1 min 29 sec) 
Heartbeat CPU  2 instructions:   11000003 cycles:    6477758 heartbeat IPC: 3.12853 cumulative IPC: 1.69812 (Simulation time: 0 hr 1 min 30 sec) 
Heartbeat CPU  1 instructions:   12000000 cycles:    6483596 heartbeat IPC: 2.04463 cumulative IPC: 1.85082 (Simulation time: 0 hr 1 min 30 sec) 
Heartbeat CPU  1 instructions:   13000000 cycles:    6980765 heartbeat IPC: 2.01139 cumulative IPC: 1.86226 (Simulation time: 0 hr 1 min 37 sec) 
Heartbeat CPU  3 instructions:   13000000 cycles:    6982132 heartbeat IPC: 1.81576 cumulative IPC: 1.86190 (Simulation time: 0 hr 1 min 37 sec) 
Heartbeat CPU  2 instructions:   12000000 cycles:    6984434 heartbeat IPC: 1.97364 cumulative IPC: 1.71811 (Simulation time: 0 hr 1 min 37 sec) 
Heartbeat CPU  0 instructions:   13000003 cycles:    6989799 heartbeat IPC: 1.84812 cumulative IPC: 1.85985 (Simulation time: 0 hr 1 min 38 sec) 
Heartbeat CPU  3 instructions:   14000003 cycles:    7514955 heartbeat IPC: 1.87680 cumulative IPC: 1.86295 (Simulation time: 0 hr 1 min 45 sec) 
Heartbeat CPU  1 instructions:   14000001 cycles:    7521976 heartbeat IPC: 1.84771 cumulative IPC: 1.86121 (Simulation time: 0 hr 1 min 45 sec) 
Heartbeat CPU  0 instructions:   14000003 cycles:    7525404 heartbeat IPC: 1.86705 cumulative IPC: 1.86037 (Simulation time: 0 hr 1 min 45 sec) 
Heartbeat CPU  2 instructions:   13000001 cycles:    7545327 heartbeat IPC: 1.78287 cumulative IPC: 1.72292 (Simulation time: 0 hr 1 min 46 sec) 
Heartbeat CPU  0 instructions:   15000001 cycles:    8038718 heartbeat IPC: 1.94812 cumulative IPC: 1.86597 (Simulation time: 0 hr 1 min 53 sec) 
Heartbeat CPU  1 instructions:   15000003 cycles:    8056247 heartbeat IPC: 1.87171 cumulative IPC: 1.86191 (Simulation time: 0 hr 1 min 53 sec) 
Heartbeat CPU  3 instructions:   15000003 cycles:    8083358 heartbeat IPC: 1.75932 cumulative IPC: 1.85566 (Simulation time: 0 hr 1 min 54 sec) 
Heartbeat CPU  2 instructions:   14000003 cycles:    8123682 heartbeat IPC: 1.72905 cumulative IPC: 1.72336 (Simulation time: 0 hr 1 min 54 sec) 
Heartbeat CPU  0 instructions:   16000000 cycles:    8570896 heartbeat IPC: 1.87907 cumulative IPC: 1.86678 (Simulation time: 0 hr 2 min 1 sec) 
Heartbeat CPU  1 instructions:   16000000 cycles:    8596931 heartbeat IPC: 1.84950 cumulative IPC: 1.86113 (Simulation time: 0 hr 2 min 1 sec) 
Heartbeat CPU  3 instructions:   16000000 cycles:    8618321 heartbeat IPC: 1.86928 cumulative IPC: 1.85651 (Simulation time: 0 hr 2 min 1 sec) 
Heartbeat CPU  2 instructions:   15000002 cycles:    8685487 heartbeat IPC: 1.77998 cumulative IPC: 1.72702 (Simulation time: 0 hr 2 min 2 sec) 
Heartbeat CPU  0 instructions:   17000001 cycles:    9072714 heartbeat IPC: 1.99276 cumulative IPC: 1.87375 (Simulation time: 0 hr 2 min 8 sec) 
Heartbeat CPU  1 instructions:   17000003 cycles:    9139609 heartbeat IPC: 1.84272 cumulative IPC: 1.86004 (Simulation time: 0 hr 2 min 9 sec) 
Heartbeat CPU  3 instructions:   17000002 cycles:    9162469 heartbeat IPC: 1.83774 cumulative IPC: 1.85540 (Simulation time: 0 hr 2 min 10 sec) 
Heartbeat CPU  2 instructions:   16000000 cycles:    9238837 heartbeat IPC: 1.80717 cumulative IPC: 1.73182 (Simulation time: 0 hr 2 min 11 sec) 
Heartbeat CPU  0 instructions:   18000001 cycles:    9617432 heartbeat IPC: 1.83581 cumulative IPC: 1.87160 (Simulation time: 0 hr 2 min 16 sec) 
Heartbeat CPU  1 instructions:   18000001 cycles:    9659997 heartbeat IPC: 1.92164 cumulative IPC: 1.86335 (Simulation time: 0 hr 2 min 17 sec) 
Heartbeat CPU  3 instructions:   18000001 cycles:    9676031 heartbeat IPC: 1.94718 cumulative IPC: 1.86027 (Simulation time: 0 hr 2 min 17 sec) 
Heartbeat CPU  2 instructions:   17000002 cycles:    9783155 heartbeat IPC: 1.83716 cumulative IPC: 1.73768 (Simulation time: 0 hr 2 min 19 sec) 
Heartbeat CPU  0 instructions:   19000000 cycles:   10126642 heartbeat IPC: 1.96382 cumulative IPC: 1.87624 (Simulation time: 0 hr 2 min 24 sec) 
Heartbeat CPU  1 instructions:   19000000 cycles:   10191617 heartbeat IPC: 1.88104 cumulative IPC: 1.86428 (Simulation time: 0 hr 2 min 25 sec) 
Heartbeat CPU  3 instructions:   19000000 cycles:   10215134 heartbeat IPC: 1.85493 cumulative IPC: 1.85999 (Simulation time: 0 hr 2 min 25 sec) 
Heartbeat CPU  2 instructions:   18000003 cycles:   10339596 heartbeat IPC: 1.79714 cumulative IPC: 1.74088 (Simulation time: 0 hr 2 min 27 sec) 
Heartbeat CPU  0 instructions:   20000000 cycles:   10631360 heartbeat IPC: 1.98130 cumulative IPC: 1.88123 (Simulation time: 0 hr 2 min 32 sec) 
Heartbeat CPU  1 instructions:   20000000 cycles:   10697246 heartbeat IPC: 1.97773 cumulative IPC: 1.86964 (Simulation time: 0 hr 2 min 33 sec) 
Heartbeat CPU  3 instructions:   20000000 cycles:   10753124 heartbeat IPC: 1.85877 cumulative IPC: 1.85992 (Simulation time: 0 hr 2 min 34 sec) 
Heartbeat CPU  2 instructions:   19000000 cycles:   10877755 heartbeat IPC: 1.85818 cumulative IPC: 1.74668 (Simulation time: 0 hr 2 min 36 sec) 
Heartbeat CPU  0 instructions:   21000003 cycles:   11211624 heartbeat IPC: 1.72336 cumulative IPC: 1.87306 (Simulation time: 0 hr 2 min 40 sec) 
Heartbeat CPU  1 instructions:   21000003 cycles:   11227425 heartbeat IPC: 1.88616 cumulative IPC: 1.87042 (Simulation time: 0 hr 2 min 40 sec) 
Heartbeat CPU  3 instructions:   21000001 cycles:   11387055 heartbeat IPC: 1.57746 cumulative IPC: 1.84420 (Simulation time: 0 hr 2 min 43 sec) 
Heartbeat CPU  2 instructions:   20000000 cycles:   11440013 heartbeat IPC: 1.77854 cumulative IPC: 1.74825 (Simulation time: 0 hr 2 min 44 sec) 
Heartbeat CPU  0 instructions:   22000002 cycles:   11722197 heartbeat IPC: 1.95858 cumulative IPC: 1.87678 (Simulation time: 0 hr 2 min 48 sec) 
Heartbeat CPU  1 instructions:   22000001 cycles:   11748499 heartbeat IPC: 1.91911 cumulative IPC: 1.87258 (Simulation time: 0 hr 2 min 48 sec) 
Heartbeat CPU  3 instructions:   22000003 cycles:   11899582 heartbeat IPC: 1.95112 cumulative IPC: 1.84880 (Simulation time: 0 hr 2 min 51 sec) 
Heartbeat CPU  2 instructions:   21000002 cycles:   11992085 heartbeat IPC: 1.81136 cumulative IPC: 1.75116 (Simulation time: 0 hr 2 min 52 sec) 
Heartbeat CPU  0 instructions:   23000000 cycles:   12259008 heartbeat IPC: 1.86285 cumulative IPC: 1.87617 (Simulation time: 0 hr 2 min 56 sec) 
Heartbeat CPU  1 instructions:   23000000 cycles:   12386294 heartbeat IPC: 1.56790 cumulative IPC: 1.85689 (Simulation time: 0 hr 2 min 57 sec) 
Heartbeat CPU  3 instructions:   23000001 cycles:   12432457 heartbeat IPC: 1.87661 cumulative IPC: 1.85000 (Simulation time: 0 hr 2 min 58 sec) 
Heartbeat CPU  2 instructions:   22000002 cycles:   12557255 heartbeat IPC: 1.76938 cumulative IPC: 1.75198 (Simulation time: 0 hr 3 min 0 sec) 
Heartbeat CPU  0 instructions:   24000000 cycles:   12821111 heartbeat IPC: 1.77903 cumulative IPC: 1.87191 (Simulation time: 0 hr 3 min 4 sec) 
Heartbeat CPU  1 instructions:   24000000 cycles:   12918235 heartbeat IPC: 1.87991 cumulative IPC: 1.85784 (Simulation time: 0 hr 3 min 5 sec) 
Heartbeat CPU  3 instructions:   24000000 cycles:   12955792 heartbeat IPC: 1.91082 cumulative IPC: 1.85245 (Simulation time: 0 hr 3 min 6 sec) 
Heartbeat CPU  2 instructions:   23000000 cycles:   13136385 heartbeat IPC: 1.72672 cumulative IPC: 1.75086 (Simulation time: 0 hr 3 min 8 sec) 
Heartbeat CPU  0 instructions:   25000002 cycles:   13379904 heartbeat IPC: 1.78957 cumulative IPC: 1.86847 (Simulation time: 0 hr 3 min 12 sec) 
Heartbeat CPU  1 instructions:   25000002 cycles:   13448850 heartbeat IPC: 1.88461 cumulative IPC: 1.85890 (Simulation time: 0 hr 3 min 13 sec) 
Heartbeat CPU  3 instructions:   25000003 cycles:   13516789 heartbeat IPC: 1.78255 cumulative IPC: 1.84955 (Simulation time: 0 hr 3 min 14 sec) 
Heartbeat CPU  2 instructions:   24000000 cycles:   13680619 heartbeat IPC: 1.83744 cumulative IPC: 1.75431 (Simulation time: 0 hr 3 min 17 sec) 
Heartbeat CPU  0 instructions:   26000002 cycles:   13910540 heartbeat IPC: 1.88453 cumulative IPC: 1.86909 (Simulation time: 0 hr 3 min 20 sec) 
Heartbeat CPU  1 instructions:   26000000 cycles:   13975173 heartbeat IPC: 1.89997 cumulative IPC: 1.86044 (Simulation time: 0 hr 3 min 21 sec) 
Heartbeat CPU  3 instructions:   26000001 cycles:   14041203 heartbeat IPC: 1.90689 cumulative IPC: 1.85169 (Simulation time: 0 hr 3 min 22 sec) 
Heartbeat CPU  2 instructions:   25000000 cycles:   14255954 heartbeat IPC: 1.73812 cumulative IPC: 1.75365 (Simulation time: 0 hr 3 min 25 sec) 
Heartbeat CPU  0 instructions:   27000000 cycles:   14436548 heartbeat IPC: 1.90111 cumulative IPC: 1.87025 (Simulation time: 0 hr 3 min 28 sec) 
Heartbeat CPU  1 instructions:   27000000 cycles:   14480487 heartbeat IPC: 1.97897 cumulative IPC: 1.86458 (Simulation time: 0 hr 3 min 29 sec) 
Heartbeat CPU  3 instructions:   27000000 cycles:   14573577 heartbeat IPC: 1.87838 cumulative IPC: 1.85267 (Simulation time: 0 hr 3 min 30 sec) 
Heartbeat CPU  2 instructions:   26000001 cycles:   14826930 heartbeat IPC: 1.75139 cumulative IPC: 1.75357 (Simulation time: 0 hr 3 min 34 sec) 
Heartbeat CPU  0 instructions:   28000000 cycles:   14950743 heartbeat IPC: 1.94479 cumulative IPC: 1.87282 (Simulation time: 0 hr 3 min 36 sec) 
Heartbeat CPU  1 instructions:   28000000 cycles:   14982319 heartbeat IPC: 1.99270 cumulative IPC: 1.86887 (Simulation time: 0 hr 3 min 36 sec) 
Heartbeat CPU  3 instructions:   28000000 cycles:   15076954 heartbeat IPC: 1.98658 cumulative IPC: 1.85714 (Simulation time: 0 hr 3 min 38 sec) 
Heartbeat CPU  2 instructions:   27000000 cycles:   15404283 heartbeat IPC: 1.73204 cumulative IPC: 1.75276 (Simulation time: 0 hr 3 min 43 sec) 
Heartbeat CPU  0 instructions:   29000001 cycles:   15448620 heartbeat IPC: 2.00853 cumulative IPC: 1.87719 (Simulation time: 0 hr 3 min 43 sec) 
Heartbeat CPU  1 instructions:   29000002 cycles:   15488649 heartbeat IPC: 1.97500 cumulative IPC: 1.87234 (Simulation time: 0 hr 3 min 44 sec) 
Heartbeat CPU  3 instructions:   29000003 cycles:   15584240 heartbeat IPC: 1.97128 cumulative IPC: 1.86085 (Simulation time: 0 hr 3 min 46 sec) 
Heartbeat CPU  2 instructions:   28000000 cycles:   15960976 heartbeat IPC: 1.79632 cumulative IPC: 1.75428 (Simulation time: 0 hr 3 min 51 sec) 
Heartbeat CPU  0 instructions:   30000002 cycles:   15963374 heartbeat IPC: 1.94268 cumulative IPC: 1.87930 (Simulation time: 0 hr 3 min 51 sec) 
Heartbeat CPU  1 instructions:   30000002 cycles:   16001559 heartbeat IPC: 1.94966 cumulative IPC: 1.87482 (Simulation time: 0 hr 3 min 52 sec) 
Heartbeat CPU  3 instructions:   30000001 cycles:   16104633 heartbeat IPC: 1.92162 cumulative IPC: 1.86282 (Simulation time: 0 hr 3 min 53 sec) 
Heartbeat CPU  0 instructions:   31000000 cycles:   16461873 heartbeat IPC: 2.00602 cumulative IPC: 1.88314 (Simulation time: 0 hr 3 min 59 sec) 
Heartbeat CPU  2 instructions:   29000001 cycles:   16494755 heartbeat IPC: 1.87344 cumulative IPC: 1.75813 (Simulation time: 0 hr 4 min 0 sec) 
Heartbeat CPU  1 instructions:   31000003 cycles:   16527928 heartbeat IPC: 1.89981 cumulative IPC: 1.87561 (Simulation time: 0 hr 4 min 0 sec) 
Heartbeat CPU  3 instructions:   31000002 cycles:   16611076 heartbeat IPC: 1.97456 cumulative IPC: 1.86622 (Simulation time: 0 hr 4 min 1 sec) 
Heartbeat CPU  1 instructions:   32000000 cycles:   17068184 heartbeat IPC: 1.85097 cumulative IPC: 1.87483 (Simulation time: 0 hr 4 min 8 sec) 
Heartbeat CPU  2 instructions:   30000002 cycles:   17071842 heartbeat IPC: 1.73284 cumulative IPC: 1.75728 (Simulation time: 0 hr 4 min 8 sec) 
Heartbeat CPU  0 instructions:   32000000 cycles:   17101046 heartbeat IPC: 1.56452 cumulative IPC: 1.87123 (Simulation time: 0 hr 4 min 8 sec) 
Heartbeat CPU  3 instructions:   32000000 cycles:   17115127 heartbeat IPC: 1.98392 cumulative IPC: 1.86969 (Simulation time: 0 hr 4 min 9 sec) 
Heartbeat CPU  1 instructions:   33000003 cycles:   17593298 heartbeat IPC: 1.90435 cumulative IPC: 1.87571 (Simulation time: 0 hr 4 min 16 sec) 
Heartbeat CPU  0 instructions:   33000000 cycles:   17606731 heartbeat IPC: 1.97752 cumulative IPC: 1.87428 (Simulation time: 0 hr 4 min 16 sec) 
Heartbeat CPU  2 instructions:   31000001 cycles:   17636777 heartbeat IPC: 1.77011 cumulative IPC: 1.75769 (Simulation time: 0 hr 4 min 16 sec) 
Heartbeat CPU  3 instructions:   33000001 cycles:   17657985 heartbeat IPC: 1.84210 cumulative IPC: 1.86884 (Simulation time: 0 hr 4 min 17 sec) 
Heartbeat CPU  0 instructions:   34000003 cycles:   18102267 heartbeat IPC: 2.01802 cumulative IPC: 1.87822 (Simulation time: 0 hr 4 min 24 sec) 
Heartbeat CPU  1 instructions:   34000003 cycles:   18104138 heartbeat IPC: 1.95756 cumulative IPC: 1.87802 (Simulation time: 0 hr 4 min 24 sec) 
Heartbeat CPU  3 instructions:   34000000 cycles:   18149340 heartbeat IPC: 2.03519 cumulative IPC: 1.87335 (Simulation time: 0 hr 4 min 24 sec) 
Heartbeat CPU  2 instructions:   32000000 cycles:   18222758 heartbeat IPC: 1.70654 cumulative IPC: 1.75605 (Simulation time: 0 hr 4 min 26 sec) 
Heartbeat CPU  0 instructions:   35000003 cycles:   18610086 heartbeat IPC: 1.96921 cumulative IPC: 1.88070 (Simulation time: 0 hr 4 min 32 sec) 
Heartbeat CPU  1 instructions:   35000003 cycles:   18616936 heartbeat IPC: 1.95009 cumulative IPC: 1.88001 (Simulation time: 0 hr 4 min 32 sec) 
Heartbeat CPU  3 instructions:   35000000 cycles:   18670318 heartbeat IPC: 1.91947 cumulative IPC: 1.87463 (Simulation time: 0 hr 4 min 33 sec) 
Heartbeat CPU  2 instructions:   33000001 cycles:   18759398 heartbeat IPC: 1.86345 cumulative IPC: 1.75912 (Simulation time: 0 hr 4 min 34 sec) 
Heartbeat CPU  1 instructions:   36000000 cycles:   19103142 heartbeat IPC: 2.05674 cumulative IPC: 1.88451 (Simulation time: 0 hr 4 min 40 sec) 
Heartbeat CPU  0 instructions:   36000000 cycles:   19127077 heartbeat IPC: 1.93426 cumulative IPC: 1.88215 (Simulation time: 0 hr 4 min 40 sec) 
Heartbeat CPU  3 instructions:   36000000 cycles:   19173126 heartbeat IPC: 1.98883 cumulative IPC: 1.87763 (Simulation time: 0 hr 4 min 41 sec) 
Heartbeat CPU  2 instructions:   34000003 cycles:   19365489 heartbeat IPC: 1.64992 cumulative IPC: 1.75570 (Simulation time: 0 hr 4 min 43 sec) 
Heartbeat CPU  1 instructions:   37000003 cycles:   19630321 heartbeat IPC: 1.89689 cumulative IPC: 1.88484 (Simulation time: 0 hr 4 min 47 sec) 
Heartbeat CPU  0 instructions:   37000000 cycles:   19647504 heartbeat IPC: 1.92150 cumulative IPC: 1.88319 (Simulation time: 0 hr 4 min 48 sec) 
Heartbeat CPU  3 instructions:   37000003 cycles:   19711683 heartbeat IPC: 1.85682 cumulative IPC: 1.87706 (Simulation time: 0 hr 4 min 49 sec) 
Heartbeat CPU  2 instructions:   35000000 cycles:   19946150 heartbeat IPC: 1.72217 cumulative IPC: 1.75472 (Simulation time: 0 hr 4 min 52 sec) 
Heartbeat CPU  1 instructions:   38000003 cycles:   20156249 heartbeat IPC: 1.90140 cumulative IPC: 1.88527 (Simulation time: 0 hr 4 min 55 sec) 
Heartbeat CPU  0 instructions:   38000002 cycles:   20176414 heartbeat IPC: 1.89068 cumulative IPC: 1.88339 (Simulation time: 0 hr 4 min 56 sec) 
Heartbeat CPU  3 instructions:   38000000 cycles:   20215456 heartbeat IPC: 1.98502 cumulative IPC: 1.87975 (Simulation time: 0 hr 4 min 56 sec) 
Heartbeat CPU  2 instructions:   36000000 cycles:   20502035 heartbeat IPC: 1.79893 cumulative IPC: 1.75592 (Simulation time: 0 hr 5 min 1 sec) 
Heartbeat CPU  1 instructions:   39000001 cycles:   20651890 heartbeat IPC: 2.01759 cumulative IPC: 1.88845 (Simulation time: 0 hr 5 min 3 sec) 
Heartbeat CPU  0 instructions:   39000003 cycles:   20696266 heartbeat IPC: 1.92363 cumulative IPC: 1.88440 (Simulation time: 0 hr 5 min 4 sec) 
Heartbeat CPU  3 instructions:   39000002 cycles:   20717641 heartbeat IPC: 1.99130 cumulative IPC: 1.88245 (Simulation time: 0 hr 5 min 4 sec) 
Heartbeat CPU  2 instructions:   37000001 cycles:   21056800 heartbeat IPC: 1.80257 cumulative IPC: 1.75715 (Simulation time: 0 hr 5 min 9 sec) 
Heartbeat CPU  1 instructions:   40000000 cycles:   21198736 heartbeat IPC: 1.82867 cumulative IPC: 1.88690 (Simulation time: 0 hr 5 min 11 sec) 
Heartbeat CPU  0 instructions:   40000000 cycles:   21207825 heartbeat IPC: 1.95480 cumulative IPC: 1.88610 (Simulation time: 0 hr 5 min 12 sec) 
Heartbeat CPU  3 instructions:   40000000 cycles:   21225570 heartbeat IPC: 1.96878 cumulative IPC: 1.88452 (Simulation time: 0 hr 5 min 12 sec) 
Heartbeat CPU  2 instructions:   38000000 cycles:   21638742 heartbeat IPC: 1.71838 cumulative IPC: 1.75611 (Simulation time: 0 hr 5 min 18 sec) 
Heartbeat CPU  1 instructions:   41000001 cycles:   21716993 heartbeat IPC: 1.92955 cumulative IPC: 1.88792 (Simulation time: 0 hr 5 min 19 sec) 
Heartbeat CPU  3 instructions:   41000002 cycles:   21739366 heartbeat IPC: 1.94630 cumulative IPC: 1.88598 (Simulation time: 0 hr 5 min 19 sec) 
Heartbeat CPU  0 instructions:   41000000 cycles:   21758346 heartbeat IPC: 1.81646 cumulative IPC: 1.88433 (Simulation time: 0 hr 5 min 20 sec) 
Heartbeat CPU  2 instructions:   39000003 cycles:   22207822 heartbeat IPC: 1.75723 cumulative IPC: 1.75614 (Simulation time: 0 hr 5 min 26 sec) 
Heartbeat CPU  1 instructions:   42000000 cycles:   22223558 heartbeat IPC: 1.97408 cumulative IPC: 1.88989 (Simulation time: 0 hr 5 min 26 sec) 
Heartbeat CPU  0 instructions:   42000002 cycles:   22351983 heartbeat IPC: 1.68453 cumulative IPC: 1.87903 (Simulation time: 0 hr 5 min 28 sec) 
Heartbeat CPU  3 instructions:   42000002 cycles:   22432392 heartbeat IPC: 1.44295 cumulative IPC: 1.87229 (Simulation time: 0 hr 5 min 29 sec) 
Heartbeat CPU  1 instructions:   43000003 cycles:   22733617 heartbeat IPC: 1.96056 cumulative IPC: 1.89147 (Simulation time: 0 hr 5 min 33 sec) 
Heartbeat CPU  2 instructions:   40000000 cycles:   22788510 heartbeat IPC: 1.72209 cumulative IPC: 1.75527 (Simulation time: 0 hr 5 min 34 sec) 
Heartbeat CPU  0 instructions:   43000003 cycles:   22902630 heartbeat IPC: 1.81605 cumulative IPC: 1.87751 (Simulation time: 0 hr 5 min 36 sec) 
Heartbeat CPU  3 instructions:   43000001 cycles:   22951646 heartbeat IPC: 1.92584 cumulative IPC: 1.87350 (Simulation time: 0 hr 5 min 37 sec) 
Heartbeat CPU  1 instructions:   44000000 cycles:   23251253 heartbeat IPC: 1.93185 cumulative IPC: 1.89237 (Simulation time: 0 hr 5 min 41 sec) 
Heartbeat CPU  2 instructions:   41000003 cycles:   23362590 heartbeat IPC: 1.74192 cumulative IPC: 1.75494 (Simulation time: 0 hr 5 min 43 sec) 
Heartbeat CPU  0 instructions:   44000000 cycles:   23444068 heartbeat IPC: 1.84693 cumulative IPC: 1.87681 (Simulation time: 0 hr 5 min 44 sec) 
Heartbeat CPU  3 instructions:   44000000 cycles:   23487115 heartbeat IPC: 1.86752 cumulative IPC: 1.87337 (Simulation time: 0 hr 5 min 44 sec) 
Heartbeat CPU  1 instructions:   45000002 cycles:   23803994 heartbeat IPC: 1.80917 cumulative IPC: 1.89044 (Simulation time: 0 hr 5 min 49 sec) 
Heartbeat CPU  2 instructions:   42000003 cycles:   23973767 heartbeat IPC: 1.63619 cumulative IPC: 1.75192 (Simulation time: 0 hr 5 min 52 sec) 
Heartbeat CPU  0 instructions:   45000000 cycles:   24000025 heartbeat IPC: 1.79870 cumulative IPC: 1.87500 (Simulation time: 0 hr 5 min 52 sec) 
Heartbeat CPU  3 instructions:   45000002 cycles:   24022190 heartbeat IPC: 1.86890 cumulative IPC: 1.87327 (Simulation time: 0 hr 5 min 52 sec) 
Heartbeat CPU  1 instructions:   46000000 cycles:   24331734 heartbeat IPC: 1.89487 cumulative IPC: 1.89054 (Simulation time: 0 hr 5 min 57 sec) 
Heartbeat CPU  0 instructions:   46000001 cycles:   24515677 heartbeat IPC: 1.93929 cumulative IPC: 1.87635 (Simulation time: 0 hr 5 min 59 sec) 
Heartbeat CPU  2 instructions:   43000002 cycles:   24558553 heartbeat IPC: 1.71003 cumulative IPC: 1.75092 (Simulation time: 0 hr 6 min 0 sec) 
Heartbeat CPU  3 instructions:   46000002 cycles:   24585344 heartbeat IPC: 1.77571 cumulative IPC: 1.87103 (Simulation time: 0 hr 6 min 0 sec) 
Heartbeat CPU  1 instructions:   47000001 cycles:   24853233 heartbeat IPC: 1.91755 cumulative IPC: 1.89110 (Simulation time: 0 hr 6 min 4 sec) 
Heartbeat CPU  0 instructions:   47000000 cycles:   25021256 heartbeat IPC: 1.97793 cumulative IPC: 1.87840 (Simulation time: 0 hr 6 min 7 sec) 
Heartbeat CPU  3 instructions:   47000001 cycles:   25094147 heartbeat IPC: 1.96540 cumulative IPC: 1.87295 (Simulation time: 0 hr 6 min 8 sec) 
Heartbeat CPU  2 instructions:   44000000 cycles:   25142311 heartbeat IPC: 1.71304 cumulative IPC: 1.75004 (Simulation time: 0 hr 6 min 9 sec) 
Heartbeat CPU  1 instructions:   48000000 cycles:   25361708 heartbeat IPC: 1.96666 cumulative IPC: 1.89262 (Simulation time: 0 hr 6 min 12 sec) 
Heartbeat CPU  0 instructions:   48000000 cycles:   25539497 heartbeat IPC: 1.92960 cumulative IPC: 1.87944 (Simulation time: 0 hr 6 min 15 sec) 
Heartbeat CPU  3 instructions:   48000000 cycles:   25613947 heartbeat IPC: 1.92381 cumulative IPC: 1.87398 (Simulation time: 0 hr 6 min 16 sec) 
Heartbeat CPU  2 instructions:   45000003 cycles:   25714671 heartbeat IPC: 1.74716 cumulative IPC: 1.74997 (Simulation time: 0 hr 6 min 18 sec) 
Heartbeat CPU  1 instructions:   49000000 cycles:   25888639 heartbeat IPC: 1.89778 cumulative IPC: 1.89272 (Simulation time: 0 hr 6 min 20 sec) 
Heartbeat CPU  0 instructions:   49000001 cycles:   26049397 heartbeat IPC: 1.96117 cumulative IPC: 1.88104 (Simulation time: 0 hr 6 min 23 sec) 
Heartbeat CPU  3 instructions:   49000003 cycles:   26149117 heartbeat IPC: 1.86857 cumulative IPC: 1.87387 (Simulation time: 0 hr 6 min 24 sec) 
Heartbeat CPU  2 instructions:   46000000 cycles:   26294928 heartbeat IPC: 1.72337 cumulative IPC: 1.74939 (Simulation time: 0 hr 6 min 26 sec) 
Heartbeat CPU  1 instructions:   50000000 cycles:   26399555 heartbeat IPC: 1.95727 cumulative IPC: 1.89397 (Simulation time: 0 hr 6 min 28 sec) 
Heartbeat CPU  0 instructions:   50000000 cycles:   26573819 heartbeat IPC: 1.90686 cumulative IPC: 1.88155 (Simulation time: 0 hr 6 min 30 sec) 
Heartbeat CPU  3 instructions:   50000003 cycles:   26669290 heartbeat IPC: 1.92244 cumulative IPC: 1.87482 (Simulation time: 0 hr 6 min 32 sec) 
Heartbeat CPU  2 instructions:   47000002 cycles:   26928363 heartbeat IPC: 1.57870 cumulative IPC: 1.74537 (Simulation time: 0 hr 6 min 35 sec) 
Heartbeat CPU  1 instructions:   51000002 cycles:   26937039 heartbeat IPC: 1.86052 cumulative IPC: 0.03712 (Simulation time: 0 hr 6 min 36 sec) 
Heartbeat CPU  0 instructions:   51000000 cycles:   27104830 heartbeat IPC: 1.88320 cumulative IPC: 0.03689 (Simulation time: 0 hr 6 min 38 sec) 
Heartbeat CPU  3 instructions:   51000003 cycles:   27268690 heartbeat IPC: 1.66833 cumulative IPC: 0.03667 (Simulation time: 0 hr 6 min 40 sec) 
Heartbeat CPU  1 instructions:   52000000 cycles:   27462113 heartbeat IPC: 1.90449 cumulative IPC: 0.07283 (Simulation time: 0 hr 6 min 44 sec) 
Heartbeat CPU  2 instructions:   48000000 cycles:   27498723 heartbeat IPC: 1.75328 cumulative IPC: 1.74554 (Simulation time: 0 hr 6 min 44 sec) 
Heartbeat CPU  0 instructions:   52000000 cycles:   27644331 heartbeat IPC: 1.85356 cumulative IPC: 0.07235 (Simulation time: 0 hr 6 min 46 sec) 
Heartbeat CPU  3 instructions:   52000000 cycles:   27778669 heartbeat IPC: 1.96086 cumulative IPC: 0.07200 (Simulation time: 0 hr 6 min 48 sec) 
Heartbeat CPU  1 instructions:   53000001 cycles:   27996784 heartbeat IPC: 1.87031 cumulative IPC: 0.10716 (Simulation time: 0 hr 6 min 51 sec) 
Heartbeat CPU  2 instructions:   49000000 cycles:   28073445 heartbeat IPC: 1.73997 cumulative IPC: 1.74542 (Simulation time: 0 hr 6 min 52 sec) 
Heartbeat CPU  0 instructions:   53000003 cycles:   28185276 heartbeat IPC: 1.84862 cumulative IPC: 0.10644 (Simulation time: 0 hr 6 min 54 sec) 
Heartbeat CPU  3 instructions:   53000001 cycles:   28322175 heartbeat IPC: 1.83991 cumulative IPC: 0.10592 (Simulation time: 0 hr 6 min 56 sec) 
Heartbeat CPU  1 instructions:   54000003 cycles:   28537853 heartbeat IPC: 1.84820 cumulative IPC: 0.14016 (Simulation time: 0 hr 6 min 59 sec) 
Heartbeat CPU  2 instructions:   50000000 cycles:   28625723 heartbeat IPC: 1.81068 cumulative IPC: 1.74668 (Simulation time: 0 hr 7 min 1 sec) 

Warmup complete CPU  0 instructions:   53765895 cycles:   28625724 (Simulation time: 0 hr 7 min 1 sec) 
Warmup complete CPU  1 instructions:   54174153 cycles:   28625724 (Simulation time: 0 hr 7 min 1 sec) 
Warmup complete CPU  2 instructions:   50000002 cycles:   28625724 (Simulation time: 0 hr 7 min 1 sec) 
Warmup complete CPU  3 instructions:   53547115 cycles:   28625723 (Simulation time: 0 hr 7 min 1 sec) 

Heartbeat CPU  0 instructions:   54000002 cycles:   29804324 heartbeat IPC: 0.61765 cumulative IPC: 0.19863 (Simulation time: 0 hr 7 min 3 sec) 
Heartbeat CPU  3 instructions:   54000003 cycles:   30835600 heartbeat IPC: 0.39786 cumulative IPC: 0.20494 (Simulation time: 0 hr 7 min 5 sec) 
Heartbeat CPU  1 instructions:   55000002 cycles:   32581025 heartbeat IPC: 0.24733 cumulative IPC: 0.20880 (Simulation time: 0 hr 7 min 9 sec) 
Heartbeat CPU  2 instructions:   51000001 cycles:   34328888 heartbeat IPC: 0.17534 cumulative IPC: 0.17534 (Simulation time: 0 hr 7 min 13 sec) 
Heartbeat CPU  0 instructions:   55000003 cycles:   34536981 heartbeat IPC: 0.21130 cumulative IPC: 0.20877 (Simulation time: 0 hr 7 min 13 sec) 
Heartbeat CPU  3 instructions:   55000002 cycles:   35568498 heartbeat IPC: 0.21129 cumulative IPC: 0.20927 (Simulation time: 0 hr 7 min 15 sec) 
Heartbeat CPU  1 instructions:   56000000 cycles:   37417634 heartbeat IPC: 0.20676 cumulative IPC: 0.20767 (Simulation time: 0 hr 7 min 19 sec) 
Heartbeat CPU  0 instructions:   56000000 cycles:   39304458 heartbeat IPC: 0.20975 cumulative IPC: 0.20921 (Simulation time: 0 hr 7 min 23 sec) 
Heartbeat CPU  2 instructions:   52000000 cycles:   40218187 heartbeat IPC: 0.16980 cumulative IPC: 0.17253 (Simulation time: 0 hr 7 min 25 sec) 
Heartbeat CPU  3 instructions:   56000000 cycles:   40367728 heartbeat IPC: 0.20837 cumulative IPC: 0.20890 (Simulation time: 0 hr 7 min 25 sec) 
Heartbeat CPU  1 instructions:   57000001 cycles:   42237183 heartbeat IPC: 0.20749 cumulative IPC: 0.20761 (Simulation time: 0 hr 7 min 29 sec) 
Heartbeat CPU  0 instructions:   57000001 cycles:   44119856 heartbeat IPC: 0.20767 cumulative IPC: 0.20873 (Simulation time: 0 hr 7 min 33 sec) 
Heartbeat CPU  3 instructions:   57000002 cycles:   45187896 heartbeat IPC: 0.20746 cumulative IPC: 0.20848 (Simulation time: 0 hr 7 min 35 sec) 
Heartbeat CPU  2 instructions:   53000000 cycles:   46164926 heartbeat IPC: 0.16816 cumulative IPC: 0.17105 (Simulation time: 0 hr 7 min 37 sec) 
Heartbeat CPU  1 instructions:   58000000 cycles:   46992644 heartbeat IPC: 0.21028 cumulative IPC: 0.20830 (Simulation time: 0 hr 7 min 39 sec) 
Heartbeat CPU  0 instructions:   58000000 cycles:   48873196 heartbeat IPC: 0.21038 cumulative IPC: 0.20912 (Simulation time: 0 hr 7 min 43 sec) 
Heartbeat CPU  3 instructions:   58000001 cycles:   50009448 heartbeat IPC: 0.20740 cumulative IPC: 0.20824 (Simulation time: 0 hr 7 min 46 sec) 
Heartbeat CPU  2 instructions:   54000001 cycles:   50909791 heartbeat IPC: 0.21075 cumulative IPC: 0.17950 (Simulation time: 0 hr 7 min 47 sec) 
Heartbeat CPU  1 instructions:   59000000 cycles:   51766856 heartbeat IPC: 0.20946 cumulative IPC: 0.20854 (Simulation time: 0 hr 7 min 49 sec) 
Heartbeat CPU  0 instructions:   59000002 cycles:   53651349 heartbeat IPC: 0.20929 cumulative IPC: 0.20915 (Simulation time: 0 hr 7 min 53 sec) 
Heartbeat CPU  3 instructions:   59000002 cycles:   54771380 heartbeat IPC: 0.21000 cumulative IPC: 0.20856 (Simulation time: 0 hr 7 min 55 sec) 
Heartbeat CPU  1 instructions:   60000000 cycles:   56550371 heartbeat IPC: 0.20905 cumulative IPC: 0.20863 (Simulation time: 0 hr 7 min 59 sec) 
Heartbeat CPU  2 instructions:   55000002 cycles:   56843905 heartbeat IPC: 0.16852 cumulative IPC: 0.17719 (Simulation time: 0 hr 8 min 0 sec) 
Heartbeat CPU  0 instructions:   60000000 cycles:   58495245 heartbeat IPC: 0.20644 cumulative IPC: 0.20871 (Simulation time: 0 hr 8 min 3 sec) 
Heartbeat CPU  3 instructions:   60000000 cycles:   59522610 heartbeat IPC: 0.21047 cumulative IPC: 0.20885 (Simulation time: 0 hr 8 min 5 sec) 
Heartbeat CPU  1 instructions:   61000002 cycles:   61286736 heartbeat IPC: 0.21113 cumulative IPC: 0.20899 (Simulation time: 0 hr 8 min 9 sec) 
Heartbeat CPU  2 instructions:   56000000 cycles:   62869068 heartbeat IPC: 0.16597 cumulative IPC: 0.17522 (Simulation time: 0 hr 8 min 12 sec) 
Heartbeat CPU  0 instructions:   61000002 cycles:   63211990 heartbeat IPC: 0.21201 cumulative IPC: 0.20916 (Simulation time: 0 hr 8 min 13 sec) 
Heartbeat CPU  3 instructions:   61000001 cycles:   64301176 heartbeat IPC: 0.20927 cumulative IPC: 0.20891 (Simulation time: 0 hr 8 min 15 sec) 
Heartbeat CPU  1 instructions:   62000002 cycles:   66040776 heartbeat IPC: 0.21035 cumulative IPC: 0.20916 (Simulation time: 0 hr 8 min 18 sec) 
Heartbeat CPU  0 instructions:   62000000 cycles:   68047327 heartbeat IPC: 0.20681 cumulative IPC: 0.20887 (Simulation time: 0 hr 8 min 23 sec) 
Heartbeat CPU  2 instructions:   57000000 cycles:   68792030 heartbeat IPC: 0.16883 cumulative IPC: 0.17428 (Simulation time: 0 hr 8 min 24 sec) 
Heartbeat CPU  3 instructions:   62000002 cycles:   69058439 heartbeat IPC: 0.21021 cumulative IPC: 0.20906 (Simulation time: 0 hr 8 min 25 sec) 
Heartbeat CPU  1 instructions:   63000001 cycles:   70847841 heartbeat IPC: 0.20803 cumulative IPC: 0.20903 (Simulation time: 0 hr 8 min 28 sec) 
Heartbeat CPU  0 instructions:   63000003 cycles:   72850152 heartbeat IPC: 0.20821 cumulative IPC: 0.20880 (Simulation time: 0 hr 8 min 32 sec) 
Heartbeat CPU  3 instructions:   63000001 cycles:   73908644 heartbeat IPC: 0.20618 cumulative IPC: 0.20875 (Simulation time: 0 hr 8 min 34 sec) 
Heartbeat CPU  2 instructions:   58000003 cycles:   74803364 heartbeat IPC: 0.16635 cumulative IPC: 0.17324 (Simulation time: 0 hr 8 min 36 sec) 
Heartbeat CPU  1 instructions:   64000000 cycles:   75466119 heartbeat IPC: 0.21653 cumulative IPC: 0.20977 (Simulation time: 0 hr 8 min 37 sec) 
Heartbeat CPU  0 instructions:   64000000 cycles:   77576063 heartbeat IPC: 0.21160 cumulative IPC: 0.20907 (Simulation time: 0 hr 8 min 42 sec) 
Heartbeat CPU  3 instructions:   64000000 cycles:   78644389 heartbeat IPC: 0.21116 cumulative IPC: 0.20898 (Simulation time: 0 hr 8 min 44 sec) 
Heartbeat CPU  1 instructions:   65000003 cycles:   80151381 heartbeat IPC: 0.21344 cumulative IPC: 0.21011 (Simulation time: 0 hr 8 min 47 sec) 
Heartbeat CPU  2 instructions:   59000000 cycles:   80688465 heartbeat IPC: 0.16992 cumulative IPC: 0.17287 (Simulation time: 0 hr 8 min 48 sec) 
Heartbeat CPU  0 instructions:   65000001 cycles:   82356407 heartbeat IPC: 0.20919 cumulative IPC: 0.20908 (Simulation time: 0 hr 8 min 52 sec) 
Heartbeat CPU  3 instructions:   65000002 cycles:   83414761 heartbeat IPC: 0.20963 cumulative IPC: 0.20904 (Simulation time: 0 hr 8 min 54 sec) 
Heartbeat CPU  1 instructions:   66000000 cycles:   84904324 heartbeat IPC: 0.21040 cumulative IPC: 0.21013 (Simulation time: 0 hr 8 min 57 sec) 
Heartbeat CPU  2 instructions:   60000000 cycles:   86635931 heartbeat IPC: 0.16814 cumulative IPC: 0.17238 (Simulation time: 0 hr 9 min 0 sec) 
Heartbeat CPU  0 instructions:   66000003 cycles:   87079656 heartbeat IPC: 0.21172 cumulative IPC: 0.20929 (Simulation time: 0 hr 9 min 1 sec) 
Heartbeat CPU  3 instructions:   66000001 cycles:   88068706 heartbeat IPC: 0.21487 cumulative IPC: 0.20949 (Simulation time: 0 hr 9 min 3 sec) 
Heartbeat CPU  1 instructions:   67000000 cycles:   89671993 heartbeat IPC: 0.20975 cumulative IPC: 0.21010 (Simulation time: 0 hr 9 min 6 sec) 
Heartbeat CPU  0 instructions:   67000002 cycles:   91723072 heartbeat IPC: 0.21536 cumulative IPC: 0.20974 (Simulation time: 0 hr 9 min 10 sec) 
Heartbeat CPU  2 instructions:   61000000 cycles:   92640905 heartbeat IPC: 0.16653 cumulative IPC: 0.17183 (Simulation time: 0 hr 9 min 12 sec) 
Heartbeat CPU  3 instructions:   67000003 cycles:   92815932 heartbeat IPC: 0.21065 cumulative IPC: 0.20958 (Simulation time: 0 hr 9 min 13 sec) 
Heartbeat CPU  1 instructions:   68000000 cycles:   94349143 heartbeat IPC: 0.21381 cumulative IPC: 0.21036 (Simulation time: 0 hr 9 min 16 sec) 
Heartbeat CPU  0 instructions:   68000000 cycles:   96397390 heartbeat IPC: 0.21393 cumulative IPC: 0.21003 (Simulation time: 0 hr 9 min 20 sec) 
Heartbeat CPU  3 instructions:   68000000 cycles:   97548415 heartbeat IPC: 0.21130 cumulative IPC: 0.20970 (Simulation time: 0 hr 9 min 22 sec) 
Heartbeat CPU  2 instructions:   62000002 cycles:   98601611 heartbeat IPC: 0.16777 cumulative IPC: 0.17149 (Simulation time: 0 hr 9 min 24 sec) 
Heartbeat CPU  1 instructions:   69000000 cycles:   98982375 heartbeat IPC: 0.21583 cumulative IPC: 0.21072 (Simulation time: 0 hr 9 min 26 sec) 
Heartbeat CPU  3 instructions:   69000000 cycles:   99173844 heartbeat IPC: 0.61522 cumulative IPC: 0.21904 (Simulation time: 0 hr 9 min 26 sec) 
Heartbeat CPU  3 instructions:   70000003 cycles:   99752509 heartbeat IPC: 1.72812 cumulative IPC: 0.23132 (Simulation time: 0 hr 9 min 29 sec) 
Heartbeat CPU  3 instructions:   71000000 cycles:  100321529 heartbeat IPC: 1.75740 cumulative IPC: 0.24343 (Simulation time: 0 hr 9 min 31 sec) 
Heartbeat CPU  3 instructions:   72000000 cycles:  100860101 heartbeat IPC: 1.85676 cumulative IPC: 0.25546 (Simulation time: 0 hr 9 min 33 sec) 
Heartbeat CPU  0 instructions:   69000003 cycles:  101092541 heartbeat IPC: 0.21299 cumulative IPC: 0.21022 (Simulation time: 0 hr 9 min 34 sec) 
Heartbeat CPU  1 instructions:   70000003 cycles:  103588911 heartbeat IPC: 0.21708 cumulative IPC: 0.21111 (Simulation time: 0 hr 9 min 39 sec) 
Heartbeat CPU  2 instructions:   63000000 cycles:  104510828 heartbeat IPC: 0.16923 cumulative IPC: 0.17131 (Simulation time: 0 hr 9 min 41 sec) 
Heartbeat CPU  3 instructions:   73000001 cycles:  104996437 heartbeat IPC: 0.24176 cumulative IPC: 0.25472 (Simulation time: 0 hr 9 min 42 sec) 
Heartbeat CPU  0 instructions:   70000001 cycles:  105784400 heartbeat IPC: 0.21313 cumulative IPC: 0.21040 (Simulation time: 0 hr 9 min 44 sec) 
Heartbeat CPU  2 instructions:   64000000 cycles:  106426315 heartbeat IPC: 0.52206 cumulative IPC: 0.17995 (Simulation time: 0 hr 9 min 45 sec) 
Heartbeat CPU  1 instructions:   71000003 cycles:  108294340 heartbeat IPC: 0.21252 cumulative IPC: 0.21120 (Simulation time: 0 hr 9 min 50 sec) 
Heartbeat CPU  2 instructions:   65000000 cycles:  108438415 heartbeat IPC: 0.49699 cumulative IPC: 0.18794 (Simulation time: 0 hr 9 min 50 sec) 
Heartbeat CPU  3 instructions:   74000000 cycles:  109691966 heartbeat IPC: 0.21297 cumulative IPC: 0.25230 (Simulation time: 0 hr 9 min 53 sec) 
Heartbeat CPU  2 instructions:   66000001 cycles:  110302843 heartbeat IPC: 0.53636 cumulative IPC: 0.19589 (Simulation time: 0 hr 9 min 55 sec) 
Heartbeat CPU  0 instructions:   71000003 cycles:  110521641 heartbeat IPC: 0.21109 cumulative IPC: 0.21044 (Simulation time: 0 hr 9 min 55 sec) 
Heartbeat CPU  2 instructions:   67000002 cycles:  112145071 heartbeat IPC: 0.54282 cumulative IPC: 0.20355 (Simulation time: 0 hr 9 min 59 sec) 
Heartbeat CPU  1 instructions:   72000000 cycles:  112978175 heartbeat IPC: 0.21350 cumulative IPC: 0.21133 (Simulation time: 0 hr 10 min 2 sec) 
Heartbeat CPU  0 instructions:   72000000 cycles:  113217794 heartbeat IPC: 0.37090 cumulative IPC: 0.21555 (Simulation time: 0 hr 10 min 3 sec) 
Heartbeat CPU  2 instructions:   68000000 cycles:  113926352 heartbeat IPC: 0.56139 cumulative IPC: 0.21102 (Simulation time: 0 hr 10 min 5 sec) 
Heartbeat CPU  3 instructions:   75000001 cycles:  114314234 heartbeat IPC: 0.21634 cumulative IPC: 0.25036 (Simulation time: 0 hr 10 min 6 sec) 
Heartbeat CPU  2 instructions:   69000003 cycles:  115419577 heartbeat IPC: 0.66969 cumulative IPC: 0.21891 (Simulation time: 0 hr 10 min 9 sec) 
Heartbeat CPU  2 instructions:   70000000 cycles:  116821920 heartbeat IPC: 0.71309 cumulative IPC: 0.22677 (Simulation time: 0 hr 10 min 12 sec) 
Heartbeat CPU  0 instructions:   73000001 cycles:  117134250 heartbeat IPC: 0.25533 cumulative IPC: 0.21731 (Simulation time: 0 hr 10 min 13 sec) 
Heartbeat CPU  1 instructions:   73000002 cycles:  117622814 heartbeat IPC: 0.21530 cumulative IPC: 0.21153 (Simulation time: 0 hr 10 min 14 sec) 
Heartbeat CPU  2 instructions:   71000003 cycles:  118433671 heartbeat IPC: 0.62045 cumulative IPC: 0.23383 (Simulation time: 0 hr 10 min 17 sec) 
Heartbeat CPU  3 instructions:   76000000 cycles:  119195993 heartbeat IPC: 0.20484 cumulative IPC: 0.24791 (Simulation time: 0 hr 10 min 19 sec) 
Heartbeat CPU  2 instructions:   72000000 cycles:  119763784 heartbeat IPC: 0.75181 cumulative IPC: 0.24139 (Simulation time: 0 hr 10 min 20 sec) 
Heartbeat CPU  0 instructions:   74000003 cycles:  121854160 heartbeat IPC: 0.21187 cumulative IPC: 0.21704 (Simulation time: 0 hr 10 min 25 sec) 
Heartbeat CPU  1 instructions:   74000003 cycles:  122499719 heartbeat IPC: 0.20505 cumulative IPC: 0.21120 (Simulation time: 0 hr 10 min 26 sec) 
Heartbeat CPU  3 instructions:   77000000 cycles:  124014653 heartbeat IPC: 0.20753 cumulative IPC: 0.24587 (Simulation time: 0 hr 10 min 29 sec) 
Heartbeat CPU  2 instructions:   73000000 cycles:  124933897 heartbeat IPC: 0.19342 cumulative IPC: 0.23882 (Simulation time: 0 hr 10 min 31 sec) 
Heartbeat CPU  0 instructions:   75000001 cycles:  126517431 heartbeat IPC: 0.21444 cumulative IPC: 0.21691 (Simulation time: 0 hr 10 min 34 sec) 
Heartbeat CPU  1 instructions:   75000002 cycles:  127074478 heartbeat IPC: 0.21859 cumulative IPC: 0.21154 (Simulation time: 0 hr 10 min 35 sec) 
Heartbeat CPU  3 instructions:   78000001 cycles:  128830800 heartbeat IPC: 0.20764 cumulative IPC: 0.24403 (Simulation time: 0 hr 10 min 39 sec) 
Heartbeat CPU  2 instructions:   74000000 cycles:  130484606 heartbeat IPC: 0.18016 cumulative IPC: 0.23562 (Simulation time: 0 hr 10 min 42 sec) 
Heartbeat CPU  0 instructions:   76000000 cycles:  131334153 heartbeat IPC: 0.20761 cumulative IPC: 0.21648 (Simulation time: 0 hr 10 min 44 sec) 
Heartbeat CPU  1 instructions:   76000000 cycles:  131839593 heartbeat IPC: 0.20986 cumulative IPC: 0.21146 (Simulation time: 0 hr 10 min 45 sec) 
Heartbeat CPU  3 instructions:   79000001 cycles:  133641940 heartbeat IPC: 0.20785 cumulative IPC: 0.24237 (Simulation time: 0 hr 10 min 49 sec) 
Heartbeat CPU  2 instructions:   75000002 cycles:  135225492 heartbeat IPC: 0.21093 cumulative IPC: 0.23452 (Simulation time: 0 hr 10 min 52 sec) 
Heartbeat CPU  0 instructions:   77000002 cycles:  136104993 heartbeat IPC: 0.20961 cumulative IPC: 0.21617 (Simulation time: 0 hr 10 min 54 sec) 
Heartbeat CPU  1 instructions:   77000002 cycles:  136630269 heartbeat IPC: 0.20874 cumulative IPC: 0.21134 (Simulation time: 0 hr 10 min 55 sec) 
Heartbeat CPU  3 instructions:   80000000 cycles:  138495529 heartbeat IPC: 0.20603 cumulative IPC: 0.24077 (Simulation time: 0 hr 10 min 59 sec) 
Heartbeat CPU  0 instructions:   78000000 cycles:  140880484 heartbeat IPC: 0.20940 cumulative IPC: 0.21588 (Simulation time: 0 hr 11 min 3 sec) 
Heartbeat CPU  2 instructions:   76000000 cycles:  141246458 heartbeat IPC: 0.16609 cumulative IPC: 0.23086 (Simulation time: 0 hr 11 min 4 sec) 
Heartbeat CPU  1 instructions:   78000001 cycles:  141540437 heartbeat IPC: 0.20366 cumulative IPC: 0.21101 (Simulation time: 0 hr 11 min 5 sec) 
Heartbeat CPU  3 instructions:   81000000 cycles:  143326091 heartbeat IPC: 0.20702 cumulative IPC: 0.23934 (Simulation time: 0 hr 11 min 8 sec) 
Heartbeat CPU  0 instructions:   79000002 cycles:  145605787 heartbeat IPC: 0.21163 cumulative IPC: 0.21571 (Simulation time: 0 hr 11 min 13 sec) 
Heartbeat CPU  1 instructions:   79000002 cycles:  146350503 heartbeat IPC: 0.20790 cumulative IPC: 0.21088 (Simulation time: 0 hr 11 min 14 sec) 
Heartbeat CPU  2 instructions:   77000001 cycles:  147272761 heartbeat IPC: 0.16594 cumulative IPC: 0.22757 (Simulation time: 0 hr 11 min 16 sec) 
Heartbeat CPU  3 instructions:   82000000 cycles:  148065058 heartbeat IPC: 0.21102 cumulative IPC: 0.23822 (Simulation time: 0 hr 11 min 18 sec) 
Heartbeat CPU  0 instructions:   80000000 cycles:  150421109 heartbeat IPC: 0.20767 cumulative IPC: 0.21539 (Simulation time: 0 hr 11 min 22 sec) 
Heartbeat CPU  1 instructions:   80000000 cycles:  151200799 heartbeat IPC: 0.20617 cumulative IPC: 0.21069 (Simulation time: 0 hr 11 min 24 sec) 
Heartbeat CPU  3 instructions:   83000000 cycles:  153023302 heartbeat IPC: 0.20168 cumulative IPC: 0.23676 (Simulation time: 0 hr 11 min 28 sec) 
Heartbeat CPU  2 instructions:   78000000 cycles:  153325404 heartbeat IPC: 0.16522 cumulative IPC: 0.22454 (Simulation time: 0 hr 11 min 28 sec) 
Heartbeat CPU  0 instructions:   81000000 cycles:  155191767 heartbeat IPC: 0.20961 cumulative IPC: 0.21518 (Simulation time: 0 hr 11 min 32 sec) 
Heartbeat CPU  1 instructions:   81000002 cycles:  155971114 heartbeat IPC: 0.20963 cumulative IPC: 0.21065 (Simulation time: 0 hr 11 min 34 sec) 
Heartbeat CPU  3 instructions:   84000000 cycles:  157866791 heartbeat IPC: 0.20646 cumulative IPC: 0.23563 (Simulation time: 0 hr 11 min 37 sec) 
Heartbeat CPU  2 instructions:   79000001 cycles:  159310179 heartbeat IPC: 0.16709 cumulative IPC: 0.22191 (Simulation time: 0 hr 11 min 40 sec) 
Heartbeat CPU  0 instructions:   82000002 cycles:  159958802 heartbeat IPC: 0.20977 cumulative IPC: 0.21498 (Simulation time: 0 hr 11 min 42 sec) 
Heartbeat CPU  1 instructions:   82000000 cycles:  160703549 heartbeat IPC: 0.21131 cumulative IPC: 0.21068 (Simulation time: 0 hr 11 min 43 sec) 
Heartbeat CPU  3 instructions:   85000002 cycles:  162737904 heartbeat IPC: 0.20529 cumulative IPC: 0.23453 (Simulation time: 0 hr 11 min 47 sec) 
Heartbeat CPU  0 instructions:   83000001 cycles:  164875164 heartbeat IPC: 0.20340 cumulative IPC: 0.21456 (Simulation time: 0 hr 11 min 51 sec) 
Heartbeat CPU  2 instructions:   80000000 cycles:  165365572 heartbeat IPC: 0.16514 cumulative IPC: 0.21939 (Simulation time: 0 hr 11 min 52 sec) 
Heartbeat CPU  1 instructions:   83000002 cycles:  165462749 heartbeat IPC: 0.21012 cumulative IPC: 0.21066 (Simulation time: 0 hr 11 min 53 sec) 
Heartbeat CPU  3 instructions:   86000000 cycles:  167610494 heartbeat IPC: 0.20523 cumulative IPC: 0.23350 (Simulation time: 0 hr 11 min 57 sec) 
Heartbeat CPU  0 instructions:   84000000 cycles:  169658486 heartbeat IPC: 0.20906 cumulative IPC: 0.21438 (Simulation time: 0 hr 12 min 1 sec) 
Heartbeat CPU  1 instructions:   84000000 cycles:  170183025 heartbeat IPC: 0.21185 cumulative IPC: 0.21070 (Simulation time: 0 hr 12 min 2 sec) 
Heartbeat CPU  2 instructions:   81000001 cycles:  171309390 heartbeat IPC: 0.16824 cumulative IPC: 0.21726 (Simulation time: 0 hr 12 min 4 sec) 
Heartbeat CPU  3 instructions:   87000003 cycles:  172525884 heartbeat IPC: 0.20344 cumulative IPC: 0.23247 (Simulation time: 0 hr 12 min 7 sec) 
Heartbeat CPU  0 instructions:   85000002 cycles:  174498904 heartbeat IPC: 0.20659 cumulative IPC: 0.21412 (Simulation time: 0 hr 12 min 11 sec) 
Heartbeat CPU  1 instructions:   85000001 cycles:  174973608 heartbeat IPC: 0.20874 cumulative IPC: 0.21063 (Simulation time: 0 hr 12 min 12 sec) 
Heartbeat CPU  2 instructions:   82000000 cycles:  177289776 heartbeat IPC: 0.16721 cumulative IPC: 0.21525 (Simulation time: 0 hr 12 min 16 sec) 
Heartbeat CPU  3 instructions:   88000000 cycles:  177511363 heartbeat IPC: 0.20058 cumulative IPC: 0.23141 (Simulation time: 0 hr 12 min 17 sec) 
Heartbeat CPU  0 instructions:   86000002 cycles:  179330574 heartbeat IPC: 0.20697 cumulative IPC: 0.21389 (Simulation time: 0 hr 12 min 21 sec) 
Heartbeat CPU  1 instructions:   86000001 cycles:  179773196 heartbeat IPC: 0.20835 cumulative IPC: 0.21056 (Simulation time: 0 hr 12 min 22 sec) 
Heartbeat CPU  3 instructions:   89000003 cycles:  182353618 heartbeat IPC: 0.20652 cumulative IPC: 0.23062 (Simulation time: 0 hr 12 min 27 sec) 
Heartbeat CPU  2 instructions:   83000001 cycles:  183299552 heartbeat IPC: 0.16640 cumulative IPC: 0.21335 (Simulation time: 0 hr 12 min 29 sec) 
Heartbeat CPU  0 instructions:   87000002 cycles:  184160966 heartbeat IPC: 0.20702 cumulative IPC: 0.21368 (Simulation time: 0 hr 12 min 30 sec) 
Heartbeat CPU  1 instructions:   87000003 cycles:  184693802 heartbeat IPC: 0.20323 cumulative IPC: 0.21033 (Simulation time: 0 hr 12 min 31 sec) 
Heartbeat CPU  3 instructions:   90000003 cycles:  187155278 heartbeat IPC: 0.20826 cumulative IPC: 0.22994 (Simulation time: 0 hr 12 min 37 sec) 
Heartbeat CPU  0 instructions:   88000000 cycles:  188904139 heartbeat IPC: 0.21083 cumulative IPC: 0.21359 (Simulation time: 0 hr 12 min 40 sec) 
Heartbeat CPU  2 instructions:   84000000 cycles:  189220625 heartbeat IPC: 0.16889 cumulative IPC: 0.21171 (Simulation time: 0 hr 12 min 41 sec) 
Heartbeat CPU  1 instructions:   88000000 cycles:  189473843 heartbeat IPC: 0.20920 cumulative IPC: 0.21030 (Simulation time: 0 hr 12 min 41 sec) 
Heartbeat CPU  3 instructions:   91000000 cycles:  191878534 heartbeat IPC: 0.21172 cumulative IPC: 0.22942 (Simulation time: 0 hr 12 min 46 sec) 
Heartbeat CPU  1 instructions:   89000002 cycles:  192348139 heartbeat IPC: 0.34791 cumulative IPC: 0.21271 (Simulation time: 0 hr 12 min 48 sec) 
Heartbeat CPU  0 instructions:   89000003 cycles:  193516759 heartbeat IPC: 0.21680 cumulative IPC: 0.21368 (Simulation time: 0 hr 12 min 50 sec) 
Heartbeat CPU  2 instructions:   85000000 cycles:  195292619 heartbeat IPC: 0.16469 cumulative IPC: 0.21000 (Simulation time: 0 hr 12 min 54 sec) 
Heartbeat CPU  3 instructions:   92000000 cycles:  196609670 heartbeat IPC: 0.21137 cumulative IPC: 0.22891 (Simulation time: 0 hr 12 min 56 sec) 
Heartbeat CPU  1 instructions:   90000003 cycles:  196952327 heartbeat IPC: 0.21719 cumulative IPC: 0.21284 (Simulation time: 0 hr 12 min 57 sec) 
Heartbeat CPU  0 instructions:   90000001 cycles:  198217355 heartbeat IPC: 0.21274 cumulative IPC: 0.21366 (Simulation time: 0 hr 13 min 0 sec) 
Heartbeat CPU  2 instructions:   86000002 cycles:  201310474 heartbeat IPC: 0.16617 cumulative IPC: 0.20847 (Simulation time: 0 hr 13 min 6 sec) 
Heartbeat CPU  3 instructions:   93000002 cycles:  201359798 heartbeat IPC: 0.21052 cumulative IPC: 0.22840 (Simulation time: 0 hr 13 min 6 sec) 
Heartbeat CPU  1 instructions:   91000002 cycles:  201736587 heartbeat IPC: 0.20902 cumulative IPC: 0.21273 (Simulation time: 0 hr 13 min 7 sec) 
Heartbeat CPU  0 instructions:   91000003 cycles:  203037257 heartbeat IPC: 0.20747 cumulative IPC: 0.21348 (Simulation time: 0 hr 13 min 10 sec) 
Heartbeat CPU  2 instructions:   87000003 cycles:  206062874 heartbeat IPC: 0.21042 cumulative IPC: 0.20852 (Simulation time: 0 hr 13 min 16 sec) 
Heartbeat CPU  3 instructions:   94000002 cycles:  206156887 heartbeat IPC: 0.20846 cumulative IPC: 0.22786 (Simulation time: 0 hr 13 min 16 sec) 
Heartbeat CPU  1 instructions:   92000000 cycles:  206495010 heartbeat IPC: 0.21015 cumulative IPC: 0.21266 (Simulation time: 0 hr 13 min 17 sec) 
Heartbeat CPU  0 instructions:   92000000 cycles:  207796257 heartbeat IPC: 0.21013 cumulative IPC: 0.21340 (Simulation time: 0 hr 13 min 20 sec) 
Heartbeat CPU  3 instructions:   95000000 cycles:  210945532 heartbeat IPC: 0.20883 cumulative IPC: 0.22736 (Simulation time: 0 hr 13 min 26 sec) 
Heartbeat CPU  1 instructions:   93000003 cycles:  211226571 heartbeat IPC: 0.21135 cumulative IPC: 0.21263 (Simulation time: 0 hr 13 min 26 sec) 
Heartbeat CPU  2 instructions:   88000000 cycles:  212033024 heartbeat IPC: 0.16750 cumulative IPC: 0.20719 (Simulation time: 0 hr 13 min 28 sec) 
Heartbeat CPU  0 instructions:   93000000 cycles:  212495769 heartbeat IPC: 0.21279 cumulative IPC: 0.21338 (Simulation time: 0 hr 13 min 29 sec) 
Heartbeat CPU  2 instructions:   89000002 cycles:  215237998 heartbeat IPC: 0.31202 cumulative IPC: 0.20899 (Simulation time: 0 hr 13 min 35 sec) 
Heartbeat CPU  3 instructions:   96000000 cycles:  215696471 heartbeat IPC: 0.21048 cumulative IPC: 0.22693 (Simulation time: 0 hr 13 min 36 sec) 
Heartbeat CPU  1 instructions:   94000000 cycles:  215921316 heartbeat IPC: 0.21300 cumulative IPC: 0.21264 (Simulation time: 0 hr 13 min 37 sec) 
Heartbeat CPU  0 instructions:   94000001 cycles:  217285090 heartbeat IPC: 0.20880 cumulative IPC: 0.21326 (Simulation time: 0 hr 13 min 39 sec) 
Heartbeat CPU  3 instructions:   97000002 cycles:  220446111 heartbeat IPC: 0.21054 cumulative IPC: 0.22653 (Simulation time: 0 hr 13 min 46 sec) 
Heartbeat CPU  1 instructions:   95000000 cycles:  220739064 heartbeat IPC: 0.20757 cumulative IPC: 0.21251 (Simulation time: 0 hr 13 min 46 sec) 
Heartbeat CPU  2 instructions:   90000000 cycles:  220820564 heartbeat IPC: 0.17913 cumulative IPC: 0.20812 (Simulation time: 0 hr 13 min 46 sec) 
Heartbeat CPU  0 instructions:   95000002 cycles:  222024759 heartbeat IPC: 0.21099 cumulative IPC: 0.21321 (Simulation time: 0 hr 13 min 49 sec) 
Heartbeat CPU  3 instructions:   98000000 cycles:  225077210 heartbeat IPC: 0.21593 cumulative IPC: 0.22628 (Simulation time: 0 hr 13 min 55 sec) 
Heartbeat CPU  1 instructions:   96000000 cycles:  225495180 heartbeat IPC: 0.21026 cumulative IPC: 0.21245 (Simulation time: 0 hr 13 min 56 sec) 
Heartbeat CPU  2 instructions:   91000001 cycles:  225940409 heartbeat IPC: 0.19532 cumulative IPC: 0.20779 (Simulation time: 0 hr 13 min 57 sec) 
Heartbeat CPU  0 instructions:   96000000 cycles:  226794209 heartbeat IPC: 0.20967 cumulative IPC: 0.21312 (Simulation time: 0 hr 13 min 59 sec) 
Heartbeat CPU  1 instructions:   97000000 cycles:  228740630 heartbeat IPC: 0.30812 cumulative IPC: 0.21401 (Simulation time: 0 hr 14 min 4 sec) 
Heartbeat CPU  2 instructions:   92000000 cycles:  229043391 heartbeat IPC: 0.32227 cumulative IPC: 0.20956 (Simulation time: 0 hr 14 min 4 sec) 
Heartbeat CPU  3 instructions:   99000003 cycles:  229875905 heartbeat IPC: 0.20839 cumulative IPC: 0.22585 (Simulation time: 0 hr 14 min 6 sec) 
Heartbeat CPU  2 instructions:   93000000 cycles:  231358782 heartbeat IPC: 0.43189 cumulative IPC: 0.21210 (Simulation time: 0 hr 14 min 10 sec) 
Heartbeat CPU  0 instructions:   97000002 cycles:  231440566 heartbeat IPC: 0.21522 cumulative IPC: 0.21317 (Simulation time: 0 hr 14 min 10 sec) 
Heartbeat CPU  1 instructions:   98000000 cycles:  233495711 heartbeat IPC: 0.21030 cumulative IPC: 0.21392 (Simulation time: 0 hr 14 min 15 sec) 
*** Reached end of trace for Core: 3 Repeating trace: /data3/STREAMING/traces/streaming_phase3_core3.trace.xz
Heartbeat CPU  3 instructions:  100000000 cycles:  234653005 heartbeat IPC: 0.20933 cumulative IPC: 0.22547 (Simulation time: 0 hr 14 min 17 sec) 
Heartbeat CPU  2 instructions:   94000000 cycles:  235675325 heartbeat IPC: 0.23167 cumulative IPC: 0.21251 (Simulation time: 0 hr 14 min 19 sec) 
Heartbeat CPU  0 instructions:   98000000 cycles:  236167106 heartbeat IPC: 0.21157 cumulative IPC: 0.21313 (Simulation time: 0 hr 14 min 20 sec) 
Heartbeat CPU  1 instructions:   99000000 cycles:  238244616 heartbeat IPC: 0.21057 cumulative IPC: 0.21384 (Simulation time: 0 hr 14 min 24 sec) 
Heartbeat CPU  3 instructions:  101000001 cycles:  239445175 heartbeat IPC: 0.20867 cumulative IPC: 0.22509 (Simulation time: 0 hr 14 min 27 sec) 
Heartbeat CPU  0 instructions:   99000003 cycles:  240972791 heartbeat IPC: 0.20809 cumulative IPC: 0.21302 (Simulation time: 0 hr 14 min 30 sec) 
Heartbeat CPU  2 instructions:   95000000 cycles:  241626876 heartbeat IPC: 0.16802 cumulative IPC: 0.21127 (Simulation time: 0 hr 14 min 31 sec) 
*** Reached end of trace for Core: 1 Repeating trace: /data3/STREAMING/traces/streaming_phase3_core1.trace.xz
Heartbeat CPU  1 instructions:  100000000 cycles:  243057363 heartbeat IPC: 0.20778 cumulative IPC: 0.21371 (Simulation time: 0 hr 14 min 34 sec) 
Heartbeat CPU  3 instructions:  102000003 cycles:  244212105 heartbeat IPC: 0.20978 cumulative IPC: 0.22475 (Simulation time: 0 hr 14 min 36 sec) 
*** Reached end of trace for Core: 0 Repeating trace: /data3/STREAMING/traces/streaming_phase3_core0.trace.xz
Heartbeat CPU  0 instructions:  100000000 cycles:  245779687 heartbeat IPC: 0.20803 cumulative IPC: 0.21291 (Simulation time: 0 hr 14 min 39 sec) 
Heartbeat CPU  2 instructions:   96000000 cycles:  247565548 heartbeat IPC: 0.16839 cumulative IPC: 0.21010 (Simulation time: 0 hr 14 min 43 sec) 
Heartbeat CPU  1 instructions:  101000000 cycles:  247856912 heartbeat IPC: 0.20835 cumulative IPC: 0.21359 (Simulation time: 0 hr 14 min 44 sec) 
Heartbeat CPU  3 instructions:  103000003 cycles:  248885480 heartbeat IPC: 0.21398 cumulative IPC: 0.22452 (Simulation time: 0 hr 14 min 46 sec) 
Heartbeat CPU  0 instructions:  101000001 cycles:  250612648 heartbeat IPC: 0.20691 cumulative IPC: 0.21278 (Simulation time: 0 hr 14 min 50 sec) 
Heartbeat CPU  2 instructions:   97000002 cycles:  250753456 heartbeat IPC: 0.31369 cumulative IPC: 0.21159 (Simulation time: 0 hr 14 min 50 sec) 
Heartbeat CPU  1 instructions:  102000001 cycles:  252598350 heartbeat IPC: 0.21091 cumulative IPC: 0.21353 (Simulation time: 0 hr 14 min 54 sec) 
Heartbeat CPU  3 instructions:  104000000 cycles:  253628235 heartbeat IPC: 0.21085 cumulative IPC: 0.22423 (Simulation time: 0 hr 14 min 56 sec) 
Heartbeat CPU  0 instructions:  102000001 cycles:  255325880 heartbeat IPC: 0.21217 cumulative IPC: 0.21277 (Simulation time: 0 hr 15 min 0 sec) 
Heartbeat CPU  2 instructions:   98000003 cycles:  256445707 heartbeat IPC: 0.17568 cumulative IPC: 0.21069 (Simulation time: 0 hr 15 min 2 sec) 
Heartbeat CPU  1 instructions:  103000003 cycles:  257473473 heartbeat IPC: 0.20512 cumulative IPC: 0.21336 (Simulation time: 0 hr 15 min 4 sec) 
Heartbeat CPU  3 instructions:  105000001 cycles:  258465872 heartbeat IPC: 0.20671 cumulative IPC: 0.22386 (Simulation time: 0 hr 15 min 6 sec) 
Heartbeat CPU  0 instructions:  103000001 cycles:  260049930 heartbeat IPC: 0.21168 cumulative IPC: 0.21274 (Simulation time: 0 hr 15 min 9 sec) 
Heartbeat CPU  1 instructions:  104000000 cycles:  262153260 heartbeat IPC: 0.21368 cumulative IPC: 0.21336 (Simulation time: 0 hr 15 min 13 sec) 
Heartbeat CPU  2 instructions:   99000001 cycles:  262357357 heartbeat IPC: 0.16916 cumulative IPC: 0.20964 (Simulation time: 0 hr 15 min 14 sec) 
Heartbeat CPU  3 instructions:  106000002 cycles:  263214639 heartbeat IPC: 0.21058 cumulative IPC: 0.22359 (Simulation time: 0 hr 15 min 16 sec) 
Heartbeat CPU  0 instructions:  104000000 cycles:  264848025 heartbeat IPC: 0.20842 cumulative IPC: 0.21266 (Simulation time: 0 hr 15 min 19 sec) 
Heartbeat CPU  1 instructions:  105000001 cycles:  266961526 heartbeat IPC: 0.20798 cumulative IPC: 0.21325 (Simulation time: 0 hr 15 min 23 sec) 
*** Reached end of trace for Core: 2 Repeating trace: /data3/STREAMING/traces/streaming_phase3_core2.trace.xz
Heartbeat CPU  3 instructions:  107000003 cycles:  267974564 heartbeat IPC: 0.21009 cumulative IPC: 0.22333 (Simulation time: 0 hr 15 min 25 sec) 
Heartbeat CPU  2 instructions:  100000000 cycles:  268159828 heartbeat IPC: 0.17234 cumulative IPC: 0.20874 (Simulation time: 0 hr 15 min 26 sec) 
Heartbeat CPU  0 instructions:  105000003 cycles:  269686429 heartbeat IPC: 0.20668 cumulative IPC: 0.21254 (Simulation time: 0 hr 15 min 29 sec) 
Heartbeat CPU  1 instructions:  106000001 cycles:  271783987 heartbeat IPC: 0.20736 cumulative IPC: 0.21314 (Simulation time: 0 hr 15 min 33 sec) 
Heartbeat CPU  3 instructions:  108000000 cycles:  272703494 heartbeat IPC: 0.21146 cumulative IPC: 0.22310 (Simulation time: 0 hr 15 min 35 sec) 
Heartbeat CPU  2 instructions:  101000002 cycles:  274140875 heartbeat IPC: 0.16720 cumulative IPC: 0.20773 (Simulation time: 0 hr 15 min 38 sec) 
Heartbeat CPU  0 instructions:  106000003 cycles:  274431427 heartbeat IPC: 0.21075 cumulative IPC: 0.21250 (Simulation time: 0 hr 15 min 39 sec) 
Heartbeat CPU  1 instructions:  107000003 cycles:  276588776 heartbeat IPC: 0.20813 cumulative IPC: 0.21304 (Simulation time: 0 hr 15 min 43 sec) 
Heartbeat CPU  3 instructions:  109000002 cycles:  277573279 heartbeat IPC: 0.20535 cumulative IPC: 0.22275 (Simulation time: 0 hr 15 min 45 sec) 
Heartbeat CPU  0 instructions:  107000002 cycles:  279155953 heartbeat IPC: 0.21166 cumulative IPC: 0.21249 (Simulation time: 0 hr 15 min 48 sec) 
Heartbeat CPU  2 instructions:  102000000 cycles:  280071456 heartbeat IPC: 0.16862 cumulative IPC: 0.20680 (Simulation time: 0 hr 15 min 50 sec) 
Heartbeat CPU  1 instructions:  108000000 cycles:  281293054 heartbeat IPC: 0.21257 cumulative IPC: 0.21303 (Simulation time: 0 hr 15 min 53 sec) 
Heartbeat CPU  3 instructions:  110000000 cycles:  282375127 heartbeat IPC: 0.20825 cumulative IPC: 0.22247 (Simulation time: 0 hr 15 min 55 sec) 
Heartbeat CPU  0 instructions:  108000000 cycles:  283958692 heartbeat IPC: 0.20821 cumulative IPC: 0.21241 (Simulation time: 0 hr 15 min 58 sec) 
Heartbeat CPU  2 instructions:  103000003 cycles:  285930612 heartbeat IPC: 0.17067 cumulative IPC: 0.20598 (Simulation time: 0 hr 16 min 2 sec) 
Heartbeat CPU  1 instructions:  109000001 cycles:  286133992 heartbeat IPC: 0.20657 cumulative IPC: 0.21291 (Simulation time: 0 hr 16 min 2 sec) 
Heartbeat CPU  3 instructions:  111000002 cycles:  287133174 heartbeat IPC: 0.21017 cumulative IPC: 0.22225 (Simulation time: 0 hr 16 min 4 sec) 
Heartbeat CPU  0 instructions:  109000000 cycles:  288833198 heartbeat IPC: 0.20515 cumulative IPC: 0.21227 (Simulation time: 0 hr 16 min 8 sec) 
Heartbeat CPU  1 instructions:  110000003 cycles:  291138094 heartbeat IPC: 0.19984 cumulative IPC: 0.21266 (Simulation time: 0 hr 16 min 13 sec) 
Heartbeat CPU  3 instructions:  112000000 cycles:  291896812 heartbeat IPC: 0.20992 cumulative IPC: 0.22203 (Simulation time: 0 hr 16 min 14 sec) 
Heartbeat CPU  2 instructions:  104000000 cycles:  291984110 heartbeat IPC: 0.16519 cumulative IPC: 0.20504 (Simulation time: 0 hr 16 min 14 sec) 
Heartbeat CPU  0 instructions:  110000002 cycles:  293614485 heartbeat IPC: 0.20915 cumulative IPC: 0.21221 (Simulation time: 0 hr 16 min 18 sec) 
Heartbeat CPU  1 instructions:  111000002 cycles:  295896387 heartbeat IPC: 0.21016 cumulative IPC: 0.21262 (Simulation time: 0 hr 16 min 22 sec) 
Heartbeat CPU  3 instructions:  113000002 cycles:  296447349 heartbeat IPC: 0.21975 cumulative IPC: 0.22199 (Simulation time: 0 hr 16 min 23 sec) 
Heartbeat CPU  2 instructions:  105000002 cycles:  297933874 heartbeat IPC: 0.16807 cumulative IPC: 0.20423 (Simulation time: 0 hr 16 min 26 sec) 
Heartbeat CPU  0 instructions:  111000003 cycles:  298302426 heartbeat IPC: 0.21331 cumulative IPC: 0.21223 (Simulation time: 0 hr 16 min 27 sec) 
Heartbeat CPU  1 instructions:  112000000 cycles:  300556011 heartbeat IPC: 0.21461 cumulative IPC: 0.21265 (Simulation time: 0 hr 16 min 32 sec) 
Heartbeat CPU  3 instructions:  114000000 cycles:  301237673 heartbeat IPC: 0.20875 cumulative IPC: 0.22175 (Simulation time: 0 hr 16 min 33 sec) 
Heartbeat CPU  0 instructions:  112000000 cycles:  302969212 heartbeat IPC: 0.21428 cumulative IPC: 0.21227 (Simulation time: 0 hr 16 min 37 sec) 
Heartbeat CPU  2 instructions:  106000003 cycles:  303932951 heartbeat IPC: 0.16669 cumulative IPC: 0.20341 (Simulation time: 0 hr 16 min 39 sec) 
Heartbeat CPU  1 instructions:  113000000 cycles:  305097992 heartbeat IPC: 0.22017 cumulative IPC: 0.21277 (Simulation time: 0 hr 16 min 41 sec) 
Heartbeat CPU  3 instructions:  115000003 cycles:  306048567 heartbeat IPC: 0.20786 cumulative IPC: 0.22151 (Simulation time: 0 hr 16 min 43 sec) 
Heartbeat CPU  0 instructions:  113000000 cycles:  307426470 heartbeat IPC: 0.22435 cumulative IPC: 0.21246 (Simulation time: 0 hr 16 min 46 sec) 
Heartbeat CPU  2 instructions:  107000000 cycles:  309726638 heartbeat IPC: 0.17260 cumulative IPC: 0.20277 (Simulation time: 0 hr 16 min 51 sec) 
Heartbeat CPU  1 instructions:  114000002 cycles:  309876309 heartbeat IPC: 0.20928 cumulative IPC: 0.21271 (Simulation time: 0 hr 16 min 51 sec) 
Heartbeat CPU  3 instructions:  116000000 cycles:  310816562 heartbeat IPC: 0.20973 cumulative IPC: 0.22131 (Simulation time: 0 hr 16 min 53 sec) 
Heartbeat CPU  0 instructions:  114000002 cycles:  312067580 heartbeat IPC: 0.21547 cumulative IPC: 0.21251 (Simulation time: 0 hr 16 min 55 sec) 
Heartbeat CPU  1 instructions:  115000000 cycles:  314547303 heartbeat IPC: 0.21409 cumulative IPC: 0.21274 (Simulation time: 0 hr 17 min 0 sec) 
Heartbeat CPU  3 instructions:  117000003 cycles:  315533526 heartbeat IPC: 0.21200 cumulative IPC: 0.22116 (Simulation time: 0 hr 17 min 3 sec) 
Heartbeat CPU  2 instructions:  108000000 cycles:  315651982 heartbeat IPC: 0.16877 cumulative IPC: 0.20207 (Simulation time: 0 hr 17 min 3 sec) 
Heartbeat CPU  0 instructions:  115000000 cycles:  316840813 heartbeat IPC: 0.20950 cumulative IPC: 0.21246 (Simulation time: 0 hr 17 min 5 sec) 
Heartbeat CPU  1 instructions:  116000000 cycles:  319348173 heartbeat IPC: 0.20830 cumulative IPC: 0.21266 (Simulation time: 0 hr 17 min 10 sec) 
Heartbeat CPU  3 instructions:  118000002 cycles:  320417467 heartbeat IPC: 0.20475 cumulative IPC: 0.22089 (Simulation time: 0 hr 17 min 12 sec) 
Heartbeat CPU  0 instructions:  116000000 cycles:  321537942 heartbeat IPC: 0.21290 cumulative IPC: 0.21247 (Simulation time: 0 hr 17 min 15 sec) 
Heartbeat CPU  2 instructions:  109000002 cycles:  321732596 heartbeat IPC: 0.16446 cumulative IPC: 0.20129 (Simulation time: 0 hr 17 min 15 sec) 
Heartbeat CPU  1 instructions:  117000000 cycles:  324026974 heartbeat IPC: 0.21373 cumulative IPC: 0.21268 (Simulation time: 0 hr 17 min 20 sec) 
Heartbeat CPU  3 instructions:  119000003 cycles:  325226344 heartbeat IPC: 0.20795 cumulative IPC: 0.22068 (Simulation time: 0 hr 17 min 22 sec) 
Heartbeat CPU  0 instructions:  117000000 cycles:  326306229 heartbeat IPC: 0.20972 cumulative IPC: 0.21242 (Simulation time: 0 hr 17 min 24 sec) 
Heartbeat CPU  2 instructions:  110000003 cycles:  327610978 heartbeat IPC: 0.17012 cumulative IPC: 0.20068 (Simulation time: 0 hr 17 min 27 sec) 
Heartbeat CPU  1 instructions:  118000002 cycles:  328757472 heartbeat IPC: 0.21139 cumulative IPC: 0.21266 (Simulation time: 0 hr 17 min 30 sec) 
Heartbeat CPU  2 instructions:  111000000 cycles:  329541844 heartbeat IPC: 0.51790 cumulative IPC: 0.20271 (Simulation time: 0 hr 17 min 32 sec) 
Heartbeat CPU  3 instructions:  120000000 cycles:  329971565 heartbeat IPC: 0.21074 cumulative IPC: 0.22052 (Simulation time: 0 hr 17 min 33 sec) 
Heartbeat CPU  0 instructions:  118000003 cycles:  331045472 heartbeat IPC: 0.21100 cumulative IPC: 0.21240 (Simulation time: 0 hr 17 min 35 sec) 
Heartbeat CPU  1 instructions:  119000000 cycles:  333594809 heartbeat IPC: 0.20672 cumulative IPC: 0.21257 (Simulation time: 0 hr 17 min 40 sec) 
Heartbeat CPU  2 instructions:  112000000 cycles:  334052621 heartbeat IPC: 0.22169 cumulative IPC: 0.20299 (Simulation time: 0 hr 17 min 41 sec) 
Heartbeat CPU  3 instructions:  121000001 cycles:  335027483 heartbeat IPC: 0.19779 cumulative IPC: 0.22015 (Simulation time: 0 hr 17 min 43 sec) 
Heartbeat CPU  0 instructions:  119000003 cycles:  335865727 heartbeat IPC: 0.20746 cumulative IPC: 0.21232 (Simulation time: 0 hr 17 min 45 sec) 
Heartbeat CPU  1 instructions:  120000000 cycles:  338238994 heartbeat IPC: 0.21532 cumulative IPC: 0.21261 (Simulation time: 0 hr 17 min 50 sec) 
Heartbeat CPU  3 instructions:  122000002 cycles:  339750305 heartbeat IPC: 0.21174 cumulative IPC: 0.22002 (Simulation time: 0 hr 17 min 53 sec) 
Heartbeat CPU  2 instructions:  113000001 cycles:  339872450 heartbeat IPC: 0.17183 cumulative IPC: 0.20241 (Simulation time: 0 hr 17 min 53 sec) 
Heartbeat CPU  0 instructions:  120000000 cycles:  340503656 heartbeat IPC: 0.21561 cumulative IPC: 0.21237 (Simulation time: 0 hr 17 min 54 sec) 
Heartbeat CPU  1 instructions:  121000002 cycles:  342998082 heartbeat IPC: 0.21012 cumulative IPC: 0.21257 (Simulation time: 0 hr 18 min 0 sec) 
Heartbeat CPU  3 instructions:  123000000 cycles:  344399908 heartbeat IPC: 0.21507 cumulative IPC: 0.21994 (Simulation time: 0 hr 18 min 2 sec) 
Heartbeat CPU  0 instructions:  121000002 cycles:  345482868 heartbeat IPC: 0.20084 cumulative IPC: 0.21219 (Simulation time: 0 hr 18 min 5 sec) 
Heartbeat CPU  2 instructions:  114000003 cycles:  345711211 heartbeat IPC: 0.17127 cumulative IPC: 0.20184 (Simulation time: 0 hr 18 min 5 sec) 
Heartbeat CPU  1 instructions:  122000003 cycles:  347710421 heartbeat IPC: 0.21221 cumulative IPC: 0.21256 (Simulation time: 0 hr 18 min 9 sec) 
Heartbeat CPU  3 instructions:  124000000 cycles:  349097447 heartbeat IPC: 0.21288 cumulative IPC: 0.21984 (Simulation time: 0 hr 18 min 12 sec) 
Heartbeat CPU  0 instructions:  122000002 cycles:  350245112 heartbeat IPC: 0.20999 cumulative IPC: 0.21216 (Simulation time: 0 hr 18 min 14 sec) 
Heartbeat CPU  2 instructions:  115000000 cycles:  351463132 heartbeat IPC: 0.17385 cumulative IPC: 0.20134 (Simulation time: 0 hr 18 min 17 sec) 
Heartbeat CPU  1 instructions:  123000000 cycles:  352742995 heartbeat IPC: 0.19870 cumulative IPC: 0.21235 (Simulation time: 0 hr 18 min 20 sec) 
Heartbeat CPU  3 instructions:  125000001 cycles:  353892679 heartbeat IPC: 0.20854 cumulative IPC: 0.21967 (Simulation time: 0 hr 18 min 22 sec) 
Heartbeat CPU  0 instructions:  123000002 cycles:  355203948 heartbeat IPC: 0.20166 cumulative IPC: 0.21200 (Simulation time: 0 hr 18 min 24 sec) 
Heartbeat CPU  2 instructions:  116000000 cycles:  357195249 heartbeat IPC: 0.17446 cumulative IPC: 0.20087 (Simulation time: 0 hr 18 min 29 sec) 
Heartbeat CPU  1 instructions:  124000000 cycles:  357369230 heartbeat IPC: 0.21616 cumulative IPC: 0.21240 (Simulation time: 0 hr 18 min 29 sec) 
Heartbeat CPU  3 instructions:  126000002 cycles:  358607328 heartbeat IPC: 0.21211 cumulative IPC: 0.21957 (Simulation time: 0 hr 18 min 31 sec) 
Heartbeat CPU  0 instructions:  124000000 cycles:  360075349 heartbeat IPC: 0.20528 cumulative IPC: 0.21190 (Simulation time: 0 hr 18 min 34 sec) 
Heartbeat CPU  1 instructions:  125000001 cycles:  362249089 heartbeat IPC: 0.20492 cumulative IPC: 0.21229 (Simulation time: 0 hr 18 min 39 sec) 
Heartbeat CPU  2 instructions:  117000003 cycles:  362903360 heartbeat IPC: 0.17519 cumulative IPC: 0.20043 (Simulation time: 0 hr 18 min 40 sec) 
Heartbeat CPU  3 instructions:  127000002 cycles:  363260809 heartbeat IPC: 0.21489 cumulative IPC: 0.21950 (Simulation time: 0 hr 18 min 41 sec) 
Heartbeat CPU  0 instructions:  125000002 cycles:  364964086 heartbeat IPC: 0.20455 cumulative IPC: 0.21179 (Simulation time: 0 hr 18 min 45 sec) 
Heartbeat CPU  1 instructions:  126000001 cycles:  366962763 heartbeat IPC: 0.21215 cumulative IPC: 0.21229 (Simulation time: 0 hr 18 min 49 sec) 
Heartbeat CPU  3 instructions:  128000000 cycles:  368026050 heartbeat IPC: 0.20985 cumulative IPC: 0.21937 (Simulation time: 0 hr 18 min 51 sec) 
Heartbeat CPU  2 instructions:  118000001 cycles:  368683480 heartbeat IPC: 0.17301 cumulative IPC: 0.19997 (Simulation time: 0 hr 18 min 52 sec) 
Heartbeat CPU  0 instructions:  126000003 cycles:  369696969 heartbeat IPC: 0.21129 cumulative IPC: 0.21179 (Simulation time: 0 hr 18 min 54 sec) 
Heartbeat CPU  1 instructions:  127000001 cycles:  371789535 heartbeat IPC: 0.20718 cumulative IPC: 0.21222 (Simulation time: 0 hr 18 min 59 sec) 
Heartbeat CPU  3 instructions:  129000003 cycles:  372770543 heartbeat IPC: 0.21077 cumulative IPC: 0.21925 (Simulation time: 0 hr 19 min 1 sec) 
Heartbeat CPU  0 instructions:  127000002 cycles:  374460822 heartbeat IPC: 0.20991 cumulative IPC: 0.21176 (Simulation time: 0 hr 19 min 4 sec) 
Heartbeat CPU  2 instructions:  119000002 cycles:  374500176 heartbeat IPC: 0.17192 cumulative IPC: 0.19949 (Simulation time: 0 hr 19 min 4 sec) 
Heartbeat CPU  1 instructions:  128000000 cycles:  376532599 heartbeat IPC: 0.21083 cumulative IPC: 0.21220 (Simulation time: 0 hr 19 min 8 sec) 
Heartbeat CPU  3 instructions:  130000001 cycles:  377571993 heartbeat IPC: 0.20827 cumulative IPC: 0.21910 (Simulation time: 0 hr 19 min 10 sec) 
Heartbeat CPU  0 instructions:  128000000 cycles:  379225056 heartbeat IPC: 0.20990 cumulative IPC: 0.21173 (Simulation time: 0 hr 19 min 14 sec) 
Heartbeat CPU  2 instructions:  120000000 cycles:  380192153 heartbeat IPC: 0.17569 cumulative IPC: 0.19911 (Simulation time: 0 hr 19 min 16 sec) 
Heartbeat CPU  1 instructions:  129000002 cycles:  381227993 heartbeat IPC: 0.21298 cumulative IPC: 0.21221 (Simulation time: 0 hr 19 min 18 sec) 
Heartbeat CPU  3 instructions:  131000001 cycles:  382378678 heartbeat IPC: 0.20804 cumulative IPC: 0.21895 (Simulation time: 0 hr 19 min 20 sec) 
Heartbeat CPU  0 instructions:  129000000 cycles:  383892944 heartbeat IPC: 0.21423 cumulative IPC: 0.21177 (Simulation time: 0 hr 19 min 23 sec) 
Heartbeat CPU  2 instructions:  121000002 cycles:  385882655 heartbeat IPC: 0.17573 cumulative IPC: 0.19874 (Simulation time: 0 hr 19 min 27 sec) 
Heartbeat CPU  1 instructions:  130000000 cycles:  385893287 heartbeat IPC: 0.21435 cumulative IPC: 0.21224 (Simulation time: 0 hr 19 min 27 sec) 
Heartbeat CPU  3 instructions:  132000000 cycles:  387176140 heartbeat IPC: 0.20844 cumulative IPC: 0.21881 (Simulation time: 0 hr 19 min 30 sec) 
Heartbeat CPU  0 instructions:  130000001 cycles:  388646311 heartbeat IPC: 0.21038 cumulative IPC: 0.21175 (Simulation time: 0 hr 19 min 33 sec) 
Heartbeat CPU  1 instructions:  131000001 cycles:  390693404 heartbeat IPC: 0.20833 cumulative IPC: 0.21219 (Simulation time: 0 hr 19 min 37 sec) 
Heartbeat CPU  2 instructions:  122000003 cycles:  391657844 heartbeat IPC: 0.17315 cumulative IPC: 0.19833 (Simulation time: 0 hr 19 min 39 sec) 
Heartbeat CPU  3 instructions:  133000003 cycles:  391970297 heartbeat IPC: 0.20859 cumulative IPC: 0.21867 (Simulation time: 0 hr 19 min 39 sec) 
Heartbeat CPU  0 instructions:  131000002 cycles:  393413911 heartbeat IPC: 0.20975 cumulative IPC: 0.21172 (Simulation time: 0 hr 19 min 42 sec) 
Heartbeat CPU  1 instructions:  132000000 cycles:  395658647 heartbeat IPC: 0.20140 cumulative IPC: 0.21204 (Simulation time: 0 hr 19 min 47 sec) 
Heartbeat CPU  3 instructions:  134000002 cycles:  396662801 heartbeat IPC: 0.21311 cumulative IPC: 0.21860 (Simulation time: 0 hr 19 min 49 sec) 
Heartbeat CPU  2 instructions:  123000000 cycles:  397202730 heartbeat IPC: 0.18035 cumulative IPC: 0.19806 (Simulation time: 0 hr 19 min 50 sec) 
Heartbeat CPU  0 instructions:  132000000 cycles:  398368160 heartbeat IPC: 0.20185 cumulative IPC: 0.21159 (Simulation time: 0 hr 19 min 53 sec) 
[...]
Core_1_L1D_acc_level_2 0
Core_1_L1D_acc_level_3 0
Core_1_L1D_acc_level_4 0
Core_1_L1D_acc_level_5 0
Core_1_L1D_acc_level_6 0
Core_1_L1D_acc_level_7 0
Core_1_L1D_acc_level_8 0
Core_1_L1D_acc_level_9 0

Core_1_L1I_total_access 32309646
Core_1_L1I_total_hit 26040333
Core_1_L1I_total_miss 6269313
Core_1_L1I_loads 32309646
Core_1_L1I_load_hit 26040333
Core_1_L1I_load_miss 6269313
Core_1_L1I_RFOs 0
Core_1_L1I_RFO_hit 0
Core_1_L1I_RFO_miss 0
Core_1_L1I_prefetches 0
Core_1_L1I_prefetch_hit 0
Core_1_L1I_prefetch_miss 0
Core_1_L1I_writebacks 0
Core_1_L1I_writeback_hit 0
Core_1_L1I_writeback_miss 0
Core_1_L1I_prefetch_requested 0
Core_1_L1I_prefetch_dropped 0
Core_1_L1I_prefetch_issued 0
Core_1_L1I_prefetch_filled 0
Core_1_L1I_prefetch_useful 0
Core_1_L1I_prefetch_useless 0
Core_1_L1I_prefetch_late 0
Core_1_L1I_average_miss_latency 110.47983

Core_1_L1I_rq_access 162453834
Core_1_L1I_rq_forward 0
Core_1_L1I_rq_merged 123411748
Core_1_L1I_rq_to_cache 39042086
Core_1_L1I_rq_full 0

Core_1_L1I_wq_access 0
Core_1_L1I_wq_forward 0
Core_1_L1I_wq_merged 0
Core_1_L1I_wq_to_cache 0
Core_1_L1I_wq_full 0

Core_1_L1I_pq_access 0
Core_1_L1I_pq_forward 0
Core_1_L1I_pq_merged 0
Core_1_L1I_pq_to_cache 0
Core_1_L1I_pq_full 0

Core_1_L1I_acc_epochs 198634
Core_1_L1I_acc_level_0 198634
Core_1_L1I_acc_level_1 0
Core_1_L1I_acc_level_2 0
Core_1_L1I_acc_level_3 0
Core_1_L1I_acc_level_4 0
Core_1_L1I_acc_level_5 0
Core_1_L1I_acc_level_6 0
Core_1_L1I_acc_level_7 0
Core_1_L1I_acc_level_8 0
Core_1_L1I_acc_level_9 0

Core_1_L2C_total_access 30778541
Core_1_L2C_total_hit 22394555
Core_1_L2C_total_miss 8383986
Core_1_L2C_loads 8510917
Core_1_L2C_load_hit 6728150
Core_1_L2C_load_miss 1782767
Core_1_L2C_RFOs 858403
Core_1_L2C_RFO_hit 395268
Core_1_L2C_RFO_miss 463135
Core_1_L2C_prefetches 20201759
Core_1_L2C_prefetch_hit 14287631
Core_1_L2C_prefetch_miss 5914128
Core_1_L2C_writebacks 1207462
Core_1_L2C_writeback_hit 983506
Core_1_L2C_writeback_miss 223956
Core_1_L2C_prefetch_requested 34970184
Core_1_L2C_prefetch_dropped 4483263
Core_1_L2C_prefetch_issued 30486921
Core_1_L2C_prefetch_filled 9566529
Core_1_L2C_prefetch_useful 1090937
Core_1_L2C_prefetch_useless 8473245
Core_1_L2C_prefetch_late 81056
Core_1_L2C_average_miss_latency 140.68287

Core_1_L2C_rq_access 10163306
Core_1_L2C_rq_forward 0
Core_1_L2C_rq_merged 0
Core_1_L2C_rq_to_cache 10162504
Core_1_L2C_rq_full 0

Core_1_L2C_wq_access 1309540
Core_1_L2C_wq_forward 824
Core_1_L2C_wq_merged 0
Core_1_L2C_wq_to_cache 1309540
Core_1_L2C_wq_full 0

Core_1_L2C_pq_access 30486921
Core_1_L2C_pq_forward 0
Core_1_L2C_pq_merged 0
Core_1_L2C_pq_to_cache 30486899
Core_1_L2C_pq_full 0

Core_1_L2C_acc_epochs 198634
Core_1_L2C_acc_level_0 75447
Core_1_L2C_acc_level_1 55508
Core_1_L2C_acc_level_2 23442
Core_1_L2C_acc_level_3 12467
Core_1_L2C_acc_level_4 7352
Core_1_L2C_acc_level_5 5599
Core_1_L2C_acc_level_6 3682
Core_1_L2C_acc_level_7 2726
Core_1_L2C_acc_level_8 2074
Core_1_L2C_acc_level_9 10337

Core_1_LLC_total_access 8927370
Core_1_LLC_total_hit 7366650
Core_1_LLC_total_miss 1560720
Core_1_LLC_loads 1710921
Core_1_LLC_load_hit 1457638
Core_1_LLC_load_miss 253283
Core_1_LLC_RFOs 459913
Core_1_LLC_RFO_hit 263424
Core_1_LLC_RFO_miss 196489
Core_1_LLC_prefetches 5988626
Core_1_LLC_prefetch_hit 4898937
Core_1_LLC_prefetch_miss 1089689
Core_1_LLC_writebacks 767910
Core_1_LLC_writeback_hit 746651
Core_1_LLC_writeback_miss 21259
Core_1_LLC_prefetch_requested 0
Core_1_LLC_prefetch_dropped 0
Core_1_LLC_prefetch_issued 0
Core_1_LLC_prefetch_filled 6505350
Core_1_LLC_prefetch_useful 235120
Core_1_LLC_prefetch_useless 6184962
Core_1_LLC_prefetch_late 0
Core_1_LLC_average_miss_latency 784.62833

Core_1_LLC_rq_access 9871554
Core_1_LLC_rq_forward 0
Core_1_LLC_rq_merged 0
Core_1_LLC_rq_to_cache 9870182
Core_1_LLC_rq_full 0

Core_1_LLC_wq_access 3387195
Core_1_LLC_wq_forward 1655
Core_1_LLC_wq_merged 0
Core_1_LLC_wq_to_cache 3387195
Core_1_LLC_wq_full 0

Core_1_LLC_pq_access 43101645
Core_1_LLC_pq_forward 0
Core_1_LLC_pq_merged 0
Core_1_LLC_pq_to_cache 43101356
Core_1_LLC_pq_full 0

Core_1_LLC_acc_epochs 776072
Core_1_LLC_acc_level_0 712647
Core_1_LLC_acc_level_1 32582
Core_1_LLC_acc_level_2 13842
Core_1_LLC_acc_level_3 4034
Core_1_LLC_acc_level_4 1186
Core_1_LLC_acc_level_5 6342
Core_1_LLC_acc_level_6 875
Core_1_LLC_acc_level_7 857
Core_1_LLC_acc_level_8 362
Core_1_LLC_acc_level_9 3345

Core_1_major_page_fault 0
Core_1_minor_page_fault 23534

Core_2_instructions 150000000
Core_2_cycles 766071025
Core_2_IPC 0.19580

Core_2_branch_prediction_accuracy 96.09904
Core_2_branch_MPKI 7.16625
Core_2_average_ROB_occupancy_at_mispredict 85.65918

Core_2_L1D_total_access 23174398
Core_2_L1D_total_hit 20166272
Core_2_L1D_total_miss 3008126
Core_2_L1D_loads 14341289
Core_2_L1D_load_hit 12114842
Core_2_L1D_load_miss 2226447
Core_2_L1D_RFOs 8833109
Core_2_L1D_RFO_hit 8051430
Core_2_L1D_RFO_miss 781679
Core_2_L1D_prefetches 0
Core_2_L1D_prefetch_hit 0
Core_2_L1D_prefetch_miss 0
Core_2_L1D_writebacks 0
Core_2_L1D_writeback_hit 0
Core_2_L1D_writeback_miss 0
Core_2_L1D_prefetch_requested 0
Core_2_L1D_prefetch_dropped 0
Core_2_L1D_prefetch_issued 0
Core_2_L1D_prefetch_filled 0
Core_2_L1D_prefetch_useful 0
Core_2_L1D_prefetch_useless 0
Core_2_L1D_prefetch_late 0
Core_2_L1D_average_miss_latency 113.28958

Core_2_L1D_rq_access 26139342
Core_2_L1D_rq_forward 0
Core_2_L1D_rq_merged 11133257
Core_2_L1D_rq_to_cache 15000356
Core_2_L1D_rq_full 0

Core_2_L1D_wq_access 11493411
Core_2_L1D_wq_forward 5729
Core_2_L1D_wq_merged 35851
Core_2_L1D_wq_to_cache 11457560
Core_2_L1D_wq_full 0

Core_2_L1D_pq_access 0
Core_2_L1D_pq_forward 0
Core_2_L1D_pq_merged 0
Core_2_L1D_pq_to_cache 0
Core_2_L1D_pq_full 0

Core_2_L1D_acc_epochs 191532
Core_2_L1D_acc_level_0 191532
Core_2_L1D_acc_level_1 0
Core_2_L1D_acc_level_2 0
Core_2_L1D_acc_level_3 0
Core_2_L1D_acc_level_4 0
Core_2_L1D_acc_level_5 0
Core_2_L1D_acc_level_6 0
Core_2_L1D_acc_level_7 0
Core_2_L1D_acc_level_8 0
Core_2_L1D_acc_level_9 0

Core_2_L1I_total_access 29838144
Core_2_L1I_total_hit 24800954
Core_2_L1I_total_miss 5037190
Core_2_L1I_loads 29838144
Core_2_L1I_load_hit 24800954
Core_2_L1I_load_miss 5037190
Core_2_L1I_RFOs 0
Core_2_L1I_RFO_hit 0
Core_2_L1I_RFO_miss 0
Core_2_L1I_prefetches 0
Core_2_L1I_prefetch_hit 0
Core_2_L1I_prefetch_miss 0
Core_2_L1I_writebacks 0
Core_2_L1I_writeback_hit 0
Core_2_L1I_writeback_miss 0
Core_2_L1I_prefetch_requested 0
Core_2_L1I_prefetch_dropped 0
Core_2_L1I_prefetch_issued 0
Core_2_L1I_prefetch_filled 0
Core_2_L1I_prefetch_useful 0
Core_2_L1I_prefetch_useless 0
Core_2_L1I_prefetch_late 0
Core_2_L1I_average_miss_latency 120.23293

Core_2_L1I_rq_access 149999952
Core_2_L1I_rq_forward 0
Core_2_L1I_rq_merged 117274157
Core_2_L1I_rq_to_cache 32725795
Core_2_L1I_rq_full 0

Core_2_L1I_wq_access 0
Core_2_L1I_wq_forward 0
Core_2_L1I_wq_merged 0
Core_2_L1I_wq_to_cache 0
Core_2_L1I_wq_full 0

Core_2_L1I_pq_access 0
Core_2_L1I_pq_forward 0
Core_2_L1I_pq_merged 0
Core_2_L1I_pq_to_cache 0
Core_2_L1I_pq_full 0

Core_2_L1I_acc_epochs 191532
Core_2_L1I_acc_level_0 191532
Core_2_L1I_acc_level_1 0
Core_2_L1I_acc_level_2 0
Core_2_L1I_acc_level_3 0
Core_2_L1I_acc_level_4 0
Core_2_L1I_acc_level_5 0
Core_2_L1I_acc_level_6 0
Core_2_L1I_acc_level_7 0
Core_2_L1I_acc_level_8 0
Core_2_L1I_acc_level_9 0

Core_2_L2C_total_access 26888408
Core_2_L2C_total_hit 14188883
Core_2_L2C_total_miss 12699525
Core_2_L2C_loads 7263333
Core_2_L2C_load_hit 4615017
Core_2_L2C_load_miss 2648316
Core_2_L2C_RFOs 781355
Core_2_L2C_RFO_hit 324182
Core_2_L2C_RFO_miss 457173
Core_2_L2C_prefetches 17555591
Core_2_L2C_prefetch_hit 8279304
Core_2_L2C_prefetch_miss 9276287
Core_2_L2C_writebacks 1288129
Core_2_L2C_writeback_hit 970380
Core_2_L2C_writeback_miss 317749
Core_2_L2C_prefetch_requested 29773953
Core_2_L2C_prefetch_dropped 3772614
Core_2_L2C_prefetch_issued 26001339
Core_2_L2C_prefetch_filled 14227559
Core_2_L2C_prefetch_useful 1651956
Core_2_L2C_prefetch_useless 12573131
Core_2_L2C_prefetch_late 77220
Core_2_L2C_average_miss_latency 121.37539

Core_2_L2C_rq_access 8045316
Core_2_L2C_rq_forward 0
Core_2_L2C_rq_merged 0
Core_2_L2C_rq_to_cache 8044688
Core_2_L2C_rq_full 0

Core_2_L2C_wq_access 1288129
Core_2_L2C_wq_forward 655
Core_2_L2C_wq_merged 0
Core_2_L2C_wq_to_cache 1288129
Core_2_L2C_wq_full 0

Core_2_L2C_pq_access 26001339
Core_2_L2C_pq_forward 0
Core_2_L2C_pq_merged 0
Core_2_L2C_pq_to_cache 26001312
Core_2_L2C_pq_full 0

Core_2_L2C_acc_epochs 191532
Core_2_L2C_acc_level_0 79012
Core_2_L2C_acc_level_1 62098
Core_2_L2C_acc_level_2 19931
Core_2_L2C_acc_level_3 8373
Core_2_L2C_acc_level_4 4608
Core_2_L2C_acc_level_5 3150
Core_2_L2C_acc_level_6 2087
Core_2_L2C_acc_level_7 1551
Core_2_L2C_acc_level_8 1320
Core_2_L2C_acc_level_9 9402

Core_2_LLC_total_access 13300878
Core_2_LLC_total_hit 11997030
Core_2_LLC_total_miss 1303848
Core_2_LLC_loads 2572011
Core_2_LLC_load_hit 2388425
Core_2_LLC_load_miss 183586
Core_2_LLC_RFOs 456066
Core_2_LLC_RFO_hit 326565
Core_2_LLC_RFO_miss 129501
Core_2_LLC_prefetches 9353347
Core_2_LLC_prefetch_hit 8376694
Core_2_LLC_prefetch_miss 976653
Core_2_LLC_writebacks 919454
Core_2_LLC_writeback_hit 905346
Core_2_LLC_writeback_miss 14108
Core_2_LLC_prefetch_requested 0
Core_2_LLC_prefetch_dropped 0
Core_2_LLC_prefetch_issued 0
Core_2_LLC_prefetch_filled 6505350
Core_2_LLC_prefetch_useful 235120
Core_2_LLC_prefetch_useless 6184962
Core_2_LLC_prefetch_late 0
Core_2_LLC_average_miss_latency 939.20850

Core_2_LLC_rq_access 9871554
Core_2_LLC_rq_forward 0
Core_2_LLC_rq_merged 0
Core_2_LLC_rq_to_cache 9870182
Core_2_LLC_rq_full 0

Core_2_LLC_wq_access 3387195
Core_2_LLC_wq_forward 1655
Core_2_LLC_wq_merged 0
Core_2_LLC_wq_to_cache 3387195
Core_2_LLC_wq_full 0

Core_2_LLC_pq_access 43101645
Core_2_LLC_pq_forward 0
Core_2_LLC_pq_merged 0
Core_2_LLC_pq_to_cache 43101356
Core_2_LLC_pq_full 0

Core_2_LLC_acc_epochs 776072
Core_2_LLC_acc_level_0 712647
Core_2_LLC_acc_level_1 32582
Core_2_LLC_acc_level_2 13842
Core_2_LLC_acc_level_3 4034
Core_2_LLC_acc_level_4 1186
Core_2_LLC_acc_level_5 6342
Core_2_LLC_acc_level_6 875
Core_2_LLC_acc_level_7 857
Core_2_LLC_acc_level_8 362
Core_2_LLC_acc_level_9 3345

Core_2_major_page_fault 0
Core_2_minor_page_fault 18236

Core_3_instructions 150000003
Core_3_cycles 684803699
Core_3_IPC 0.21904

Core_3_branch_prediction_accuracy 96.83132
Core_3_branch_MPKI 5.73763
Core_3_average_ROB_occupancy_at_mispredict 81.40122

Core_3_L1D_total_access 23790510
Core_3_L1D_total_hit 20770042
Core_3_L1D_total_miss 3020468
Core_3_L1D_loads 13792416
Core_3_L1D_load_hit 11591884
Core_3_L1D_load_miss 2200532
Core_3_L1D_RFOs 9998094
Core_3_L1D_RFO_hit 9178158
Core_3_L1D_RFO_miss 819936
Core_3_L1D_prefetches 0
Core_3_L1D_prefetch_hit 0
Core_3_L1D_prefetch_miss 0
Core_3_L1D_writebacks 0
Core_3_L1D_writeback_hit 0
Core_3_L1D_writeback_miss 0
Core_3_L1D_prefetch_requested 0
Core_3_L1D_prefetch_dropped 0
Core_3_L1D_prefetch_issued 0
Core_3_L1D_prefetch_filled 0
Core_3_L1D_prefetch_useful 0
Core_3_L1D_prefetch_useless 0
Core_3_L1D_prefetch_late 0
Core_3_L1D_average_miss_latency 118.00441

Core_3_L1D_rq_access 29246493
Core_3_L1D_rq_forward 0
Core_3_L1D_rq_merged 13253165
Core_3_L1D_rq_to_cache 15990235
Core_3_L1D_rq_full 0

Core_3_L1D_wq_access 14460971
Core_3_L1D_wq_forward 3093
Core_3_L1D_wq_merged 42113
Core_3_L1D_wq_to_cache 14418858
Core_3_L1D_wq_full 0

Core_3_L1D_pq_access 0
Core_3_L1D_pq_forward 0
Core_3_L1D_pq_merged 0
Core_3_L1D_pq_to_cache 0
Core_3_L1D_pq_full 0

Core_3_L1D_acc_epochs 202822
Core_3_L1D_acc_level_0 202822
Core_3_L1D_acc_level_1 0
Core_3_L1D_acc_level_2 0
Core_3_L1D_acc_level_3 0
Core_3_L1D_acc_level_4 0
Core_3_L1D_acc_level_5 0
Core_3_L1D_acc_level_6 0
Core_3_L1D_acc_level_7 0
Core_3_L1D_acc_level_8 0
Core_3_L1D_acc_level_9 0

Core_3_L1I_total_access 32070164
Core_3_L1I_total_hit 26057266
Core_3_L1I_total_miss 6012898
Core_3_L1I_loads 32070164
Core_3_L1I_load_hit 26057266
Core_3_L1I_load_miss 6012898
Core_3_L1I_RFOs 0
Core_3_L1I_RFO_hit 0
Core_3_L1I_RFO_miss 0
Core_3_L1I_prefetches 0
Core_3_L1I_prefetch_hit 0
Core_3_L1I_prefetch_miss 0
Core_3_L1I_writebacks 0
Core_3_L1I_writeback_hit 0
Core_3_L1I_writeback_miss 0
Core_3_L1I_prefetch_requested 0
Core_3_L1I_prefetch_dropped 0
Core_3_L1I_prefetch_issued 0
Core_3_L1I_prefetch_filled 0
Core_3_L1I_prefetch_useful 0
Core_3_L1I_prefetch_useless 0
Core_3_L1I_prefetch_late 0
Core_3_L1I_average_miss_latency 111.08944

Core_3_L1I_rq_access 166997654
Core_3_L1I_rq_forward 0
Core_3_L1I_rq_merged 127249273
Core_3_L1I_rq_to_cache 39748381
Core_3_L1I_rq_full 0

Core_3_L1I_wq_access 0
Core_3_L1I_wq_forward 0
Core_3_L1I_wq_merged 0
Core_3_L1I_wq_to_cache 0
Core_3_L1I_wq_full 0

Core_3_L1I_pq_access 0
Core_3_L1I_pq_forward 0
Core_3_L1I_pq_merged 0
Core_3_L1I_pq_to_cache 0
Core_3_L1I_pq_full 0

Core_3_L1I_acc_epochs 202822
Core_3_L1I_acc_level_0 202822
Core_3_L1I_acc_level_1 0
Core_3_L1I_acc_level_2 0
Core_3_L1I_acc_level_3 0
Core_3_L1I_acc_level_4 0
Core_3_L1I_acc_level_5 0
Core_3_L1I_acc_level_6 0
Core_3_L1I_acc_level_7 0
Core_3_L1I_acc_level_8 0
Core_3_L1I_acc_level_9 0

Core_3_L2C_total_access 29779735
Core_3_L2C_total_hit 21691927
Core_3_L2C_total_miss 8087808
Core_3_L2C_loads 8213149
Core_3_L2C_load_hit 6546677
Core_3_L2C_load_miss 1666472
Core_3_L2C_RFOs 819548
Core_3_L2C_RFO_hit 390489
Core_3_L2C_RFO_miss 429059
Core_3_L2C_prefetches 19592571
Core_3_L2C_prefetch_hit 13799985
Core_3_L2C_prefetch_miss 5792586
Core_3_L2C_writebacks 1154467
Core_3_L2C_writeback_hit 954776
Core_3_L2C_writeback_miss 199691
Core_3_L2C_prefetch_requested 35201792
Core_3_L2C_prefetch_dropped 4490669
Core_3_L2C_prefetch_issued 30711123
Core_3_L2C_prefetch_filled 9764897
Core_3_L2C_prefetch_useful 1088244
Core_3_L2C_prefetch_useless 8674174
Core_3_L2C_prefetch_late 84623
Core_3_L2C_average_miss_latency 145.42554

Core_3_L2C_rq_access 10109200
Core_3_L2C_rq_forward 0
Core_3_L2C_rq_merged 0
Core_3_L2C_rq_to_cache 10108461
Core_3_L2C_rq_full 0

Core_3_L2C_wq_access 1293728
Core_3_L2C_wq_forward 758
Core_3_L2C_wq_merged 0
Core_3_L2C_wq_to_cache 1293728
Core_3_L2C_wq_full 0

Core_3_L2C_pq_access 30711123
Core_3_L2C_pq_forward 0
Core_3_L2C_pq_merged 0
Core_3_L2C_pq_to_cache 30711104
Core_3_L2C_pq_full 0

Core_3_L2C_acc_epochs 202822
Core_3_L2C_acc_level_0 85341
Core_3_L2C_acc_level_1 54030
Core_3_L2C_acc_level_2 22248
Core_3_L2C_acc_level_3 11604
Core_3_L2C_acc_level_4 6570
Core_3_L2C_acc_level_5 5045
Core_3_L2C_acc_level_6 3168
Core_3_L2C_acc_level_7 2398
Core_3_L2C_acc_level_8 1813
Core_3_L2C_acc_level_9 10605

Core_3_LLC_total_access 8600511
Core_3_LLC_total_hit 6967570
Core_3_LLC_total_miss 1632941
Core_3_LLC_loads 1593282
Core_3_LLC_load_hit 1340612
Core_3_LLC_load_miss 252670
Core_3_LLC_RFOs 426265
Core_3_LLC_RFO_hit 237831
Core_3_LLC_RFO_miss 188434
Core_3_LLC_prefetches 5868264
Core_3_LLC_prefetch_hit 4695130
Core_3_LLC_prefetch_miss 1173134
Core_3_LLC_writebacks 712700
Core_3_LLC_writeback_hit 693997
Core_3_LLC_writeback_miss 18703
Core_3_LLC_prefetch_requested 0
Core_3_LLC_prefetch_dropped 0
Core_3_LLC_prefetch_issued 0
Core_3_LLC_prefetch_filled 6505350
Core_3_LLC_prefetch_useful 235120
Core_3_LLC_prefetch_useless 6184962
Core_3_LLC_prefetch_late 0
Core_3_LLC_average_miss_latency 749.92613

Core_3_LLC_rq_access 9871554
Core_3_LLC_rq_forward 0
Core_3_LLC_rq_merged 0
Core_3_LLC_rq_to_cache 9870182
Core_3_LLC_rq_full 0

Core_3_LLC_wq_access 3387195
Core_3_LLC_wq_forward 1655
Core_3_LLC_wq_merged 0
Core_3_LLC_wq_to_cache 3387195
Core_3_LLC_wq_full 0

Core_3_LLC_pq_access 43101645
Core_3_LLC_pq_forward 0
Core_3_LLC_pq_merged 0
Core_3_LLC_pq_to_cache 43101356
Core_3_LLC_pq_full 0

Core_3_LLC_acc_epochs 776072
Core_3_LLC_acc_level_0 712647
Core_3_LLC_acc_level_1 32582
Core_3_LLC_acc_level_2 13842
Core_3_LLC_acc_level_3 4034
Core_3_LLC_acc_level_4 1186
Core_3_LLC_acc_level_5 6342
Core_3_LLC_acc_level_6 875
Core_3_LLC_acc_level_7 857
Core_3_LLC_acc_level_8 362
Core_3_LLC_acc_level_9 3345

Core_3_major_page_fault 0
Core_3_minor_page_fault 24231

dspatch.pb.lookup 12345264
dspatch.pb.hit 8527751
dspatch.pb.evict 3817449
dspatch.pb.insert 3817513

dspatch.gen_pref.called 3817513
dspatch.gen_pref.reset 23857
dspatch.gen_pref.total 35850845

dspatch.dyn_selection.called 3817513
dspatch.dyn_selection.none 149
dspatch.dyn_selection.accp_reason1 23857
dspatch.dyn_selection.accp_reason2 74816
dspatch.dyn_selection.covp_reason1 0
dspatch.dyn_selection.covp_reason2 3718691

dspatch.spt.called 3817449
dspatch.spt.or_count_incr 627638
dspatch.spt.measure_covP_incr 2446537
dspatch.spt.bmp_cov_reset 99006
dspatch.spt.bmp_cov_update 11190
dspatch.spt.measure_accP_incr 745547
dspatch.spt.measure_accP_decr 3071902
dspatch.spt.bmp_acc_update 3817449

dspatch.pref_buffer.spilled 432757
dspatch.pref_buffer.buffered 35418088
dspatch.pref_buffer.issued 35418078

dspatch.bw.called 3104285
dspatch.bw.bw_histogram 2643470,333898,93800,33117,

dspatch.pb.lookup 12340701
dspatch.pb.hit 8530176
dspatch.pb.evict 3810461
dspatch.pb.insert 3810525

dspatch.gen_pref.called 3810525
dspatch.gen_pref.reset 24774
dspatch.gen_pref.total 35203698

dspatch.dyn_selection.called 3810525
dspatch.dyn_selection.none 127
dspatch.dyn_selection.accp_reason1 24774
dspatch.dyn_selection.accp_reason2 75520
dspatch.dyn_selection.covp_reason1 0
dspatch.dyn_selection.covp_reason2 3710104

dspatch.spt.called 3810461
dspatch.spt.or_count_incr 644369
dspatch.spt.measure_covP_incr 2413001
dspatch.spt.bmp_cov_reset 100603
dspatch.spt.bmp_cov_update 11595
dspatch.spt.measure_accP_incr 734486
dspatch.spt.measure_accP_decr 3075975
dspatch.spt.bmp_acc_update 3810461

dspatch.pref_buffer.spilled 233511
dspatch.pref_buffer.buffered 34970187
dspatch.pref_buffer.issued 34970184

dspatch.bw.called 3104285
dspatch.bw.bw_histogram 2643470,333898,93800,33117,

dspatch.pb.lookup 10158410
dspatch.pb.hit 6953348
dspatch.pb.evict 3204998
dspatch.pb.insert 3205062

dspatch.gen_pref.called 3205062
dspatch.gen_pref.reset 22022
dspatch.gen_pref.total 30186516

dspatch.dyn_selection.called 3205062
dspatch.dyn_selection.none 194
dspatch.dyn_selection.accp_reason1 22022
dspatch.dyn_selection.accp_reason2 63423
dspatch.dyn_selection.covp_reason1 0
dspatch.dyn_selection.covp_reason2 3119423

dspatch.spt.called 3204998
dspatch.spt.or_count_incr 561599
dspatch.spt.measure_covP_incr 2260229
dspatch.spt.bmp_cov_reset 101833
dspatch.spt.bmp_cov_update 10600
dspatch.spt.measure_accP_incr 700433
dspatch.spt.measure_accP_decr 2504565
dspatch.spt.bmp_acc_update 3204998

dspatch.pref_buffer.spilled 412551
dspatch.pref_buffer.buffered 29773965
dspatch.pref_buffer.issued 29773953

dspatch.bw.called 3104285
dspatch.bw.bw_histogram 2643470,333898,93800,33117,

dspatch.pb.lookup 12246573
dspatch.pb.hit 8468424
dspatch.pb.evict 3778085
dspatch.pb.insert 3778149

dspatch.gen_pref.called 3778149
dspatch.gen_pref.reset 23860
dspatch.gen_pref.total 35942516

dspatch.dyn_selection.called 3778149
dspatch.dyn_selection.none 137
dspatch.dyn_selection.accp_reason1 23860
dspatch.dyn_selection.accp_reason2 73337
dspatch.dyn_selection.covp_reason1 0
dspatch.dyn_selection.covp_reason2 3680815

dspatch.spt.called 3778085
dspatch.spt.or_count_incr 614988
dspatch.spt.measure_covP_incr 2429164
dspatch.spt.bmp_cov_reset 96837
dspatch.spt.bmp_cov_update 11173
dspatch.spt.measure_accP_incr 738409
dspatch.spt.measure_accP_decr 3039676
dspatch.spt.bmp_acc_update 3778085

dspatch.pref_buffer.spilled 740724
dspatch.pref_buffer.buffered 35201792
dspatch.pref_buffer.issued 35201792

dspatch.bw.called 3104285
dspatch.bw.bw_histogram 2643470,333898,93800,33117,

Channel_0_RQ_row_buffer_hit 808913
Channel_0_RQ_row_buffer_miss 2427519
Channel_0_WQ_row_buffer_hit 71511
Channel_0_WQ_row_buffer_miss 455903
Channel_0_WQ_full 0
Channel_0_dbus_congested 1602986

Channel_1_RQ_row_buffer_hit 812810
Channel_1_RQ_row_buffer_miss 2421954
Channel_1_WQ_row_buffer_hit 70960
Channel_1_WQ_row_buffer_miss 455882
Channel_1_WQ_full 0
Channel_1_dbus_congested 1604759

avg_congested_cycle 10

DRAM_bw_pochs 3104285
DRAM_bw_level_0 2643470
DRAM_bw_level_1 333898
DRAM_bw_level_2 93800
DRAM_bw_level_3 33117
