*************************************************
   ChampSim Multicore Out-of-Order Simulator
   Last compiled: Mar 31 2025 20:14:32
*************************************************
parsing config file: /data3/config/spp_ppf_dev.ini

trace_0 /data3/STREAMING/traces/streaming_phase4_core0.trace.xz
trace_1 /data3/STREAMING/traces/streaming_phase4_core1.trace.xz
trace_2 /data3/STREAMING/traces/streaming_phase4_core2.trace.xz
trace_3 /data3/STREAMING/traces/streaming_phase4_core3.trace.xz
adding L2C_PREFETCHER: SPP_PPF_dev
Initialize SIGNATURE TABLE
ST_SET: 1
ST_WAY: 256
ST_TAG_BIT: 16
ST_TAG_MASK: ffff

Initialize PATTERN TABLE
PT_SET: 2048
PT_WAY: 4
SIG_DELTA_BIT: 7
C_SIG_BIT: 4
C_DELTA_BIT: 4

Initialize PREFETCH FILTER
FILTER_SET: 1024

Initialize PERCEPTRON
PERC_ENTRIES: 4096
PERC_FEATURES: 9
Initialize SIGNATURE TABLE
ST_SET: 1
ST_WAY: 256
ST_TAG_BIT: 16
ST_TAG_MASK: ffff

Initialize PATTERN TABLE
PT_SET: 2048
PT_WAY: 4
SIG_DELTA_BIT: 7
C_SIG_BIT: 4
C_DELTA_BIT: 4

Initialize PREFETCH FILTER
FILTER_SET: 1024

Initialize PERCEPTRON
PERC_ENTRIES: 4096
PERC_FEATURES: 9
PERC_THRESH_HI: -5
PERC_THRESH_LO: -15

adding L2C_PREFETCHER: SPP_PPF_dev
Initialize SIGNATURE TABLE
ST_SET: 1
ST_WAY: 256
ST_TAG_BIT: 16
ST_TAG_MASK: ffff

Initialize PATTERN TABLE
PT_SET: 2048
PT_WAY: 4
SIG_DELTA_BIT: 7
C_SIG_BIT: 4
C_DELTA_BIT: 4

Initialize PREFETCH FILTER
FILTER_SET: 1024

Initialize PERCEPTRON
PERC_ENTRIES: 4096
PERC_FEATURES: 9
Initialize SIGNATURE TABLE
ST_SET: 1
ST_WAY: 256
ST_TAG_BIT: 16
ST_TAG_MASK: ffff

Initialize PATTERN TABLE
PT_SET: 2048
PT_WAY: 4
SIG_DELTA_BIT: 7
C_SIG_BIT: 4
C_DELTA_BIT: 4

Initialize PREFETCH FILTER
FILTER_SET: 1024

Initialize PERCEPTRON
PERC_ENTRIES: 4096
PERC_FEATURES: 9
PERC_THRESH_HI: -5
PERC_THRESH_LO: -15

adding L2C_PREFETCHER: SPP_PPF_dev
Initialize SIGNATURE TABLE
ST_SET: 1
ST_WAY: 256
ST_TAG_BIT: 16
ST_TAG_MASK: ffff

Initialize PATTERN TABLE
PT_SET: 2048
PT_WAY: 4
SIG_DELTA_BIT: 7
C_SIG_BIT: 4
C_DELTA_BIT: 4

Initialize PREFETCH FILTER
FILTER_SET: 1024

Initialize PERCEPTRON
PERC_ENTRIES: 4096
PERC_FEATURES: 9
Initialize SIGNATURE TABLE
ST_SET: 1
ST_WAY: 256
ST_TAG_BIT: 16
ST_TAG_MASK: ffff

Initialize PATTERN TABLE
PT_SET: 2048
PT_WAY: 4
SIG_DELTA_BIT: 7
C_SIG_BIT: 4
C_DELTA_BIT: 4

Initialize PREFETCH FILTER
FILTER_SET: 1024

Initialize PERCEPTRON
PERC_ENTRIES: 4096
PERC_FEATURES: 9
PERC_THRESH_HI: -5
PERC_THRESH_LO: -15

adding L2C_PREFETCHER: SPP_PPF_dev
Initialize SIGNATURE TABLE
ST_SET: 1
ST_WAY: 256
ST_TAG_BIT: 16
ST_TAG_MASK: ffff

Initialize PATTERN TABLE
PT_SET: 2048
PT_WAY: 4
SIG_DELTA_BIT: 7
C_SIG_BIT: 4
C_DELTA_BIT: 4

Initialize PREFETCH FILTER
FILTER_SET: 1024

Initialize PERCEPTRON
PERC_ENTRIES: 4096
PERC_FEATURES: 9
Initialize SIGNATURE TABLE
ST_SET: 1
ST_WAY: 256
ST_TAG_BIT: 16
ST_TAG_MASK: ffff

Initialize PATTERN TABLE
PT_SET: 2048
PT_WAY: 4
SIG_DELTA_BIT: 7
C_SIG_BIT: 4
C_DELTA_BIT: 4

Initialize PREFETCH FILTER
FILTER_SET: 1024

Initialize PERCEPTRON
PERC_ENTRIES: 4096
PERC_FEATURES: 9
PERC_THRESH_HI: -5
PERC_THRESH_LO: -15

Initialize SHIP state
warmup_instructions 50000000
simulation_instructions 150000000
champsim_seed 8862
measure_ipc 0
measure_ipc_epoch 1000
measure_dram_bw 1
measure_dram_bw_epoch 256
measure_cache_acc 1
measure_cache_acc_epoch 1024
l1d_perfect 0
l2c_perfect 0
llc_perfect 0
l1d_semi_perfect 0
l2c_semi_perfect 0
llc_semi_perfect 0
semi_perfect_cache_page_buffer_size 64

num_cpus 4
cpu_freq 4000
dram_io_freq 2400
page_size 4096
block_size 64
max_read_per_cycle 8
max_fill_per_cycle 1
dram_channels 2
log2_dram_channels 1
dram_ranks 1
dram_banks 8
dram_rows 65536
dram_columns 128
dram_row_size 8
dram_size 8192
dram_pages 2097152

fetch_width 6
decode_width 6
exec_width 4
lq_width 2
sq_width 2
retire_width 4
scheduler_size 128
branch_mispredict_penalty 20
rob_size 256
lq_size 72
sq_size 56
num_instr_destinations_sparc 4
num_instr_destinations 2
num_instr_sources 4

itlb_set 16
itlb_way 8
itlb_rq_size 16
itlb_wq_size 16
itlb_pq_size 0
itlb_mshr_size 8
itlb_latency 1

dtlb_set 16
dtlb_way 4
dtlb_rq_size 16
dtlb_wq_size 16
dtlb_pq_size 0
dtlb_mshr_size 8
dtlb_latency 1

stlb_set 128
stlb_way 12
stlb_rq_size 32
stlb_wq_size 32
stlb_pq_size 0
stlb_mshr_size 16
stlb_latency 8

l1i_size 32
l1i_set 64
l1i_way 8
l1i_rq_size 64
l1i_wq_size 64
l1i_pq_size 8
l1i_mshr_size 8
l1i_latency 1

l1d_size 32
l1d_set 64
l1d_way 8
l1d_rq_size 64
l1d_wq_size 64
l1d_pq_size 8
l1d_mshr_size 16
l1d_latency 4

l2c_size 256
l2c_set 512
l2c_way 8
l2c_rq_size 32
l2c_wq_size 32
l2c_pq_size 32
l2c_mshr_size 32
l2c_latency 10

llc_size 8192
llc_set 8192
llc_way 16
llc_rq_size 128
llc_wq_size 128
llc_pq_size 128
llc_mshr_size 256
llc_latency 20

dram_channel_width 8
dram_wq_size 64
dram_rq_size 64
tRP 15
tRCD 15
tCAS 12.5
dram_dbus_turn_around_time 30
dram_write_high_wm 56
dram_write_low_wm 48
min_dram_writes_per_switch 16
dram_mtps 2400
dram_dbus_return_time 13


Heartbeat CPU  0 instructions:    1000003 cycles:     634401 heartbeat IPC: 1.57629 cumulative IPC: 1.57629 (Simulation time: 0 hr 0 min 11 sec) 
Heartbeat CPU  1 instructions:    1000002 cycles:     647533 heartbeat IPC: 1.54433 cumulative IPC: 1.54433 (Simulation time: 0 hr 0 min 11 sec) 
Heartbeat CPU  3 instructions:    1000000 cycles:     647772 heartbeat IPC: 1.54375 cumulative IPC: 1.54375 (Simulation time: 0 hr 0 min 11 sec) 
Heartbeat CPU  2 instructions:    1000001 cycles:     723815 heartbeat IPC: 1.38157 cumulative IPC: 1.38157 (Simulation time: 0 hr 0 min 13 sec) 
Heartbeat CPU  0 instructions:    2000001 cycles:    1199960 heartbeat IPC: 1.76816 cumulative IPC: 1.66672 (Simulation time: 0 hr 0 min 21 sec) 
Heartbeat CPU  1 instructions:    2000002 cycles:    1211315 heartbeat IPC: 1.77374 cumulative IPC: 1.65110 (Simulation time: 0 hr 0 min 22 sec) 
Heartbeat CPU  3 instructions:    2000000 cycles:    1220826 heartbeat IPC: 1.74504 cumulative IPC: 1.63824 (Simulation time: 0 hr 0 min 22 sec) 
Heartbeat CPU  2 instructions:    2000000 cycles:    1350419 heartbeat IPC: 1.59590 cumulative IPC: 1.48102 (Simulation time: 0 hr 0 min 25 sec) 
Heartbeat CPU  0 instructions:    3000001 cycles:    1702783 heartbeat IPC: 1.98877 cumulative IPC: 1.76182 (Simulation time: 0 hr 0 min 33 sec) 
Heartbeat CPU  1 instructions:    3000000 cycles:    1733679 heartbeat IPC: 1.91437 cumulative IPC: 1.73042 (Simulation time: 0 hr 0 min 34 sec) 
Heartbeat CPU  3 instructions:    3000003 cycles:    1755388 heartbeat IPC: 1.87070 cumulative IPC: 1.70903 (Simulation time: 0 hr 0 min 34 sec) 
Heartbeat CPU  2 instructions:    3000001 cycles:    1818811 heartbeat IPC: 2.13497 cumulative IPC: 1.64943 (Simulation time: 0 hr 0 min 36 sec) 
Heartbeat CPU  2 instructions:    4000000 cycles:    2133028 heartbeat IPC: 3.18251 cumulative IPC: 1.87527 (Simulation time: 0 hr 0 min 45 sec) 
Heartbeat CPU  0 instructions:    4000000 cycles:    2159722 heartbeat IPC: 2.18847 cumulative IPC: 1.85209 (Simulation time: 0 hr 0 min 45 sec) 
Heartbeat CPU  3 instructions:    4000000 cycles:    2207887 heartbeat IPC: 2.20994 cumulative IPC: 1.81169 (Simulation time: 0 hr 0 min 47 sec) 
Heartbeat CPU  1 instructions:    4000000 cycles:    2236039 heartbeat IPC: 1.99060 cumulative IPC: 1.78888 (Simulation time: 0 hr 0 min 47 sec) 
Heartbeat CPU  2 instructions:    5000001 cycles:    2455379 heartbeat IPC: 3.10221 cumulative IPC: 2.03635 (Simulation time: 0 hr 0 min 53 sec) 
Heartbeat CPU  0 instructions:    5000003 cycles:    2618393 heartbeat IPC: 2.18022 cumulative IPC: 1.90957 (Simulation time: 0 hr 0 min 58 sec) 
Heartbeat CPU  3 instructions:    5000000 cycles:    2676104 heartbeat IPC: 2.13576 cumulative IPC: 1.86839 (Simulation time: 0 hr 1 min 0 sec) 
Heartbeat CPU  1 instructions:    5000002 cycles:    2722090 heartbeat IPC: 2.05740 cumulative IPC: 1.83682 (Simulation time: 0 hr 1 min 1 sec) 
Heartbeat CPU  2 instructions:    6000001 cycles:    2772470 heartbeat IPC: 3.15367 cumulative IPC: 2.16414 (Simulation time: 0 hr 1 min 3 sec) 
Heartbeat CPU  2 instructions:    7000001 cycles:    3075101 heartbeat IPC: 3.30435 cumulative IPC: 2.27635 (Simulation time: 0 hr 1 min 10 sec) 
Heartbeat CPU  0 instructions:    6000000 cycles:    3097925 heartbeat IPC: 2.08536 cumulative IPC: 1.93678 (Simulation time: 0 hr 1 min 11 sec) 
Heartbeat CPU  3 instructions:    6000000 cycles:    3174019 heartbeat IPC: 2.00837 cumulative IPC: 1.89035 (Simulation time: 0 hr 1 min 13 sec) 
Heartbeat CPU  1 instructions:    6000001 cycles:    3196660 heartbeat IPC: 2.10717 cumulative IPC: 1.87696 (Simulation time: 0 hr 1 min 14 sec) 
Heartbeat CPU  2 instructions:    8000000 cycles:    3376512 heartbeat IPC: 3.31773 cumulative IPC: 2.36931 (Simulation time: 0 hr 1 min 19 sec) 
Heartbeat CPU  0 instructions:    7000003 cycles:    3577389 heartbeat IPC: 2.08567 cumulative IPC: 1.95674 (Simulation time: 0 hr 1 min 24 sec) 
Heartbeat CPU  3 instructions:    7000000 cycles:    3649773 heartbeat IPC: 2.10193 cumulative IPC: 1.91793 (Simulation time: 0 hr 1 min 26 sec) 
Heartbeat CPU  1 instructions:    7000000 cycles:    3672474 heartbeat IPC: 2.10166 cumulative IPC: 1.90607 (Simulation time: 0 hr 1 min 26 sec) 
Heartbeat CPU  2 instructions:    9000002 cycles:    3677468 heartbeat IPC: 3.32275 cumulative IPC: 2.44734 (Simulation time: 0 hr 1 min 26 sec) 
Heartbeat CPU  2 instructions:   10000001 cycles:    3979286 heartbeat IPC: 3.31325 cumulative IPC: 2.51301 (Simulation time: 0 hr 1 min 35 sec) 
Heartbeat CPU  0 instructions:    8000000 cycles:    4082844 heartbeat IPC: 1.97841 cumulative IPC: 1.95942 (Simulation time: 0 hr 1 min 38 sec) 
Heartbeat CPU  3 instructions:    8000000 cycles:    4109287 heartbeat IPC: 2.17621 cumulative IPC: 1.94681 (Simulation time: 0 hr 1 min 38 sec) 
Heartbeat CPU  1 instructions:    8000000 cycles:    4128400 heartbeat IPC: 2.19334 cumulative IPC: 1.93780 (Simulation time: 0 hr 1 min 39 sec) 
Heartbeat CPU  2 instructions:   11000001 cycles:    4279164 heartbeat IPC: 3.33469 cumulative IPC: 2.57060 (Simulation time: 0 hr 1 min 43 sec) 
Heartbeat CPU  0 instructions:    9000000 cycles:    4575558 heartbeat IPC: 2.02957 cumulative IPC: 1.96697 (Simulation time: 0 hr 1 min 50 sec) 
Heartbeat CPU  2 instructions:   12000000 cycles:    4579563 heartbeat IPC: 3.32890 cumulative IPC: 2.62034 (Simulation time: 0 hr 1 min 51 sec) 
Heartbeat CPU  3 instructions:    9000003 cycles:    4597629 heartbeat IPC: 2.04775 cumulative IPC: 1.95753 (Simulation time: 0 hr 1 min 51 sec) 
Heartbeat CPU  1 instructions:    9000001 cycles:    4612988 heartbeat IPC: 2.06361 cumulative IPC: 1.95101 (Simulation time: 0 hr 1 min 51 sec) 
Heartbeat CPU  2 instructions:   13000000 cycles:    4945788 heartbeat IPC: 2.73056 cumulative IPC: 2.62850 (Simulation time: 0 hr 2 min 0 sec) 
Heartbeat CPU  0 instructions:   10000001 cycles:    5065496 heartbeat IPC: 2.04108 cumulative IPC: 1.97414 (Simulation time: 0 hr 2 min 3 sec) 
Heartbeat CPU  1 instructions:   10000000 cycles:    5080463 heartbeat IPC: 2.13915 cumulative IPC: 1.96832 (Simulation time: 0 hr 2 min 3 sec) 
Heartbeat CPU  3 instructions:   10000000 cycles:    5086117 heartbeat IPC: 2.04713 cumulative IPC: 1.96614 (Simulation time: 0 hr 2 min 3 sec) 
Heartbeat CPU  0 instructions:   11000000 cycles:    5522273 heartbeat IPC: 2.18925 cumulative IPC: 1.99193 (Simulation time: 0 hr 2 min 15 sec) 
Heartbeat CPU  2 instructions:   14000001 cycles:    5536975 heartbeat IPC: 1.69151 cumulative IPC: 2.52846 (Simulation time: 0 hr 2 min 15 sec) 
Heartbeat CPU  3 instructions:   11000003 cycles:    5550743 heartbeat IPC: 2.15228 cumulative IPC: 1.98172 (Simulation time: 0 hr 2 min 15 sec) 
Heartbeat CPU  1 instructions:   11000000 cycles:    5558646 heartbeat IPC: 2.09125 cumulative IPC: 1.97890 (Simulation time: 0 hr 2 min 16 sec) 
Heartbeat CPU  0 instructions:   12000000 cycles:    5977616 heartbeat IPC: 2.19615 cumulative IPC: 2.00749 (Simulation time: 0 hr 2 min 26 sec) 
Heartbeat CPU  3 instructions:   12000000 cycles:    5995204 heartbeat IPC: 2.24991 cumulative IPC: 2.00160 (Simulation time: 0 hr 2 min 27 sec) 
Heartbeat CPU  1 instructions:   12000000 cycles:    6033050 heartbeat IPC: 2.10791 cumulative IPC: 1.98904 (Simulation time: 0 hr 2 min 28 sec) 
Heartbeat CPU  2 instructions:   15000002 cycles:    6113029 heartbeat IPC: 1.73595 cumulative IPC: 2.45378 (Simulation time: 0 hr 2 min 30 sec) 
Heartbeat CPU  0 instructions:   13000001 cycles:    6435840 heartbeat IPC: 2.18234 cumulative IPC: 2.01994 (Simulation time: 0 hr 2 min 38 sec) 
Heartbeat CPU  3 instructions:   13000002 cycles:    6464597 heartbeat IPC: 2.13042 cumulative IPC: 2.01095 (Simulation time: 0 hr 2 min 38 sec) 
Heartbeat CPU  1 instructions:   13000001 cycles:    6531534 heartbeat IPC: 2.00608 cumulative IPC: 1.99034 (Simulation time: 0 hr 2 min 40 sec) 
Heartbeat CPU  2 instructions:   16000000 cycles:    6606296 heartbeat IPC: 2.02730 cumulative IPC: 2.42193 (Simulation time: 0 hr 2 min 42 sec) 
Heartbeat CPU  2 instructions:   17000000 cycles:    6917985 heartbeat IPC: 3.20833 cumulative IPC: 2.45736 (Simulation time: 0 hr 2 min 50 sec) 
Heartbeat CPU  0 instructions:   14000001 cycles:    6954867 heartbeat IPC: 1.92668 cumulative IPC: 2.01298 (Simulation time: 0 hr 2 min 51 sec) 
Heartbeat CPU  3 instructions:   14000003 cycles:    6993439 heartbeat IPC: 1.89093 cumulative IPC: 2.00188 (Simulation time: 0 hr 2 min 52 sec) 
Heartbeat CPU  1 instructions:   14000002 cycles:    7072324 heartbeat IPC: 1.84915 cumulative IPC: 1.97955 (Simulation time: 0 hr 2 min 54 sec) 
Heartbeat CPU  2 instructions:   18000003 cycles:    7221244 heartbeat IPC: 3.29752 cumulative IPC: 2.49265 (Simulation time: 0 hr 2 min 58 sec) 
Heartbeat CPU  0 instructions:   15000002 cycles:    7491626 heartbeat IPC: 1.86304 cumulative IPC: 2.00224 (Simulation time: 0 hr 3 min 5 sec) 
Heartbeat CPU  3 instructions:   15000002 cycles:    7506904 heartbeat IPC: 1.94755 cumulative IPC: 1.99816 (Simulation time: 0 hr 3 min 5 sec) 
Heartbeat CPU  2 instructions:   19000001 cycles:    7526854 heartbeat IPC: 3.27214 cumulative IPC: 2.52430 (Simulation time: 0 hr 3 min 6 sec) 
Heartbeat CPU  1 instructions:   15000000 cycles:    7586785 heartbeat IPC: 1.94378 cumulative IPC: 1.97712 (Simulation time: 0 hr 3 min 7 sec) 
Heartbeat CPU  2 instructions:   20000000 cycles:    7826170 heartbeat IPC: 3.34095 cumulative IPC: 2.55553 (Simulation time: 0 hr 3 min 13 sec) 
Heartbeat CPU  0 instructions:   16000000 cycles:    7979005 heartbeat IPC: 2.05179 cumulative IPC: 2.00526 (Simulation time: 0 hr 3 min 17 sec) 
Heartbeat CPU  1 instructions:   16000000 cycles:    8106981 heartbeat IPC: 1.92235 cumulative IPC: 1.97361 (Simulation time: 0 hr 3 min 20 sec) 
Heartbeat CPU  3 instructions:   16000000 cycles:    8118543 heartbeat IPC: 1.63495 cumulative IPC: 1.97080 (Simulation time: 0 hr 3 min 21 sec) 
Heartbeat CPU  2 instructions:   21000000 cycles:    8129319 heartbeat IPC: 3.29871 cumulative IPC: 2.58324 (Simulation time: 0 hr 3 min 21 sec) 
Heartbeat CPU  2 instructions:   22000003 cycles:    8425861 heartbeat IPC: 3.37221 cumulative IPC: 2.61101 (Simulation time: 0 hr 3 min 29 sec) 
Heartbeat CPU  0 instructions:   17000001 cycles:    8460091 heartbeat IPC: 2.07863 cumulative IPC: 2.00943 (Simulation time: 0 hr 3 min 30 sec) 
Heartbeat CPU  1 instructions:   17000000 cycles:    8591404 heartbeat IPC: 2.06431 cumulative IPC: 1.97872 (Simulation time: 0 hr 3 min 34 sec) 
Heartbeat CPU  3 instructions:   17000003 cycles:    8610588 heartbeat IPC: 2.03234 cumulative IPC: 1.97431 (Simulation time: 0 hr 3 min 34 sec) 
Heartbeat CPU  2 instructions:   23000002 cycles:    8725976 heartbeat IPC: 3.33205 cumulative IPC: 2.63581 (Simulation time: 0 hr 3 min 38 sec) 
Heartbeat CPU  0 instructions:   18000002 cycles:    8928297 heartbeat IPC: 2.13581 cumulative IPC: 2.01606 (Simulation time: 0 hr 3 min 43 sec) 
Heartbeat CPU  2 instructions:   24000000 cycles:    9022724 heartbeat IPC: 3.36986 cumulative IPC: 2.65995 (Simulation time: 0 hr 3 min 46 sec) 
Heartbeat CPU  1 instructions:   18000001 cycles:    9034879 heartbeat IPC: 2.25492 cumulative IPC: 1.99228 (Simulation time: 0 hr 3 min 46 sec) 
Heartbeat CPU  3 instructions:   18000003 cycles:    9112689 heartbeat IPC: 1.99163 cumulative IPC: 1.97527 (Simulation time: 0 hr 3 min 48 sec) 
Heartbeat CPU  0 instructions:   19000003 cycles:    9399976 heartbeat IPC: 2.12009 cumulative IPC: 2.02128 (Simulation time: 0 hr 3 min 55 sec) 
Heartbeat CPU  1 instructions:   19000001 cycles:    9511373 heartbeat IPC: 2.09866 cumulative IPC: 1.99761 (Simulation time: 0 hr 3 min 58 sec) 
Heartbeat CPU  2 instructions:   25000001 cycles:    9556950 heartbeat IPC: 1.87187 cumulative IPC: 2.61590 (Simulation time: 0 hr 3 min 59 sec) 
Heartbeat CPU  3 instructions:   19000001 cycles:    9602615 heartbeat IPC: 2.04112 cumulative IPC: 1.97863 (Simulation time: 0 hr 4 min 0 sec) 
Heartbeat CPU  0 instructions:   20000000 cycles:    9877402 heartbeat IPC: 2.09456 cumulative IPC: 2.02482 (Simulation time: 0 hr 4 min 7 sec) 
Heartbeat CPU  1 instructions:   20000000 cycles:    9984650 heartbeat IPC: 2.11293 cumulative IPC: 2.00307 (Simulation time: 0 hr 4 min 10 sec) 
Heartbeat CPU  3 instructions:   20000000 cycles:   10075983 heartbeat IPC: 2.11252 cumulative IPC: 1.98492 (Simulation time: 0 hr 4 min 12 sec) 
Heartbeat CPU  2 instructions:   26000003 cycles:   10166886 heartbeat IPC: 1.63952 cumulative IPC: 2.55732 (Simulation time: 0 hr 4 min 14 sec) 
Heartbeat CPU  0 instructions:   21000000 cycles:   10382071 heartbeat IPC: 1.98150 cumulative IPC: 2.02272 (Simulation time: 0 hr 4 min 19 sec) 
Heartbeat CPU  1 instructions:   21000001 cycles:   10471198 heartbeat IPC: 2.05530 cumulative IPC: 2.00550 (Simulation time: 0 hr 4 min 21 sec) 
Heartbeat CPU  3 instructions:   21000001 cycles:   10525482 heartbeat IPC: 2.22470 cumulative IPC: 1.99516 (Simulation time: 0 hr 4 min 22 sec) 
Heartbeat CPU  2 instructions:   27000000 cycles:   10759065 heartbeat IPC: 1.68867 cumulative IPC: 2.50951 (Simulation time: 0 hr 4 min 28 sec) 
Heartbeat CPU  0 instructions:   22000003 cycles:   10885989 heartbeat IPC: 1.98446 cumulative IPC: 2.02095 (Simulation time: 0 hr 4 min 31 sec) 
Heartbeat CPU  1 instructions:   22000002 cycles:   10945677 heartbeat IPC: 2.10758 cumulative IPC: 2.00993 (Simulation time: 0 hr 4 min 33 sec) 
Heartbeat CPU  3 instructions:   22000000 cycles:   10988542 heartbeat IPC: 2.15955 cumulative IPC: 2.00209 (Simulation time: 0 hr 4 min 34 sec) 
Heartbeat CPU  2 instructions:   28000000 cycles:   11351797 heartbeat IPC: 1.68710 cumulative IPC: 2.46657 (Simulation time: 0 hr 4 min 42 sec) 
Heartbeat CPU  1 instructions:   23000000 cycles:   11395748 heartbeat IPC: 2.22187 cumulative IPC: 2.01830 (Simulation time: 0 hr 4 min 43 sec) 
Heartbeat CPU  0 instructions:   23000000 cycles:   11407510 heartbeat IPC: 1.91746 cumulative IPC: 2.01622 (Simulation time: 0 hr 4 min 44 sec) 
Heartbeat CPU  3 instructions:   23000003 cycles:   11488424 heartbeat IPC: 2.00048 cumulative IPC: 2.00202 (Simulation time: 0 hr 4 min 45 sec) 
Heartbeat CPU  1 instructions:   24000000 cycles:   11844408 heartbeat IPC: 2.22886 cumulative IPC: 2.02627 (Simulation time: 0 hr 4 min 54 sec) 
Heartbeat CPU  0 instructions:   24000000 cycles:   11896680 heartbeat IPC: 2.04428 cumulative IPC: 2.01737 (Simulation time: 0 hr 4 min 55 sec) 
Heartbeat CPU  2 instructions:   29000003 cycles:   11944403 heartbeat IPC: 1.68747 cumulative IPC: 2.42792 (Simulation time: 0 hr 4 min 56 sec) 
Heartbeat CPU  3 instructions:   24000000 cycles:   11983154 heartbeat IPC: 2.02130 cumulative IPC: 2.00281 (Simulation time: 0 hr 4 min 57 sec) 
Heartbeat CPU  1 instructions:   25000002 cycles:   12400119 heartbeat IPC: 1.79950 cumulative IPC: 2.01611 (Simulation time: 0 hr 5 min 7 sec) 
Heartbeat CPU  2 instructions:   30000003 cycles:   12432054 heartbeat IPC: 2.05065 cumulative IPC: 2.41312 (Simulation time: 0 hr 5 min 8 sec) 
Heartbeat CPU  0 instructions:   25000001 cycles:   12444298 heartbeat IPC: 1.82609 cumulative IPC: 2.00895 (Simulation time: 0 hr 5 min 8 sec) 
Heartbeat CPU  3 instructions:   25000000 cycles:   12504999 heartbeat IPC: 1.91628 cumulative IPC: 1.99920 (Simulation time: 0 hr 5 min 10 sec) 
Heartbeat CPU  2 instructions:   31000000 cycles:   12746163 heartbeat IPC: 3.18360 cumulative IPC: 2.43210 (Simulation time: 0 hr 5 min 16 sec) 
Heartbeat CPU  1 instructions:   26000001 cycles:   12917821 heartbeat IPC: 1.93161 cumulative IPC: 2.01272 (Simulation time: 0 hr 5 min 20 sec) 
Heartbeat CPU  3 instructions:   26000002 cycles:   13045403 heartbeat IPC: 1.85047 cumulative IPC: 1.99304 (Simulation time: 0 hr 5 min 23 sec) 
Heartbeat CPU  0 instructions:   26000003 cycles:   13053092 heartbeat IPC: 1.64260 cumulative IPC: 1.99187 (Simulation time: 0 hr 5 min 23 sec) 
Heartbeat CPU  2 instructions:   32000000 cycles:   13053918 heartbeat IPC: 3.24934 cumulative IPC: 2.45137 (Simulation time: 0 hr 5 min 23 sec) 
Heartbeat CPU  1 instructions:   27000002 cycles:   13464364 heartbeat IPC: 1.82968 cumulative IPC: 2.00529 (Simulation time: 0 hr 5 min 32 sec) 
Heartbeat CPU  2 instructions:   33000000 cycles:   13470485 heartbeat IPC: 2.40057 cumulative IPC: 2.44980 (Simulation time: 0 hr 5 min 33 sec) 
Heartbeat CPU  3 instructions:   27000000 cycles:   13605328 heartbeat IPC: 1.78595 cumulative IPC: 1.98452 (Simulation time: 0 hr 5 min 35 sec) 
Heartbeat CPU  0 instructions:   27000001 cycles:   13702126 heartbeat IPC: 1.54075 cumulative IPC: 1.97050 (Simulation time: 0 hr 5 min 37 sec) 
Heartbeat CPU  1 instructions:   28000000 cycles:   14004298 heartbeat IPC: 1.85207 cumulative IPC: 1.99939 (Simulation time: 0 hr 5 min 44 sec) 
Heartbeat CPU  2 instructions:   34000000 cycles:   14026369 heartbeat IPC: 1.79894 cumulative IPC: 2.42401 (Simulation time: 0 hr 5 min 44 sec) 
Heartbeat CPU  3 instructions:   28000000 cycles:   14164760 heartbeat IPC: 1.78753 cumulative IPC: 1.97674 (Simulation time: 0 hr 5 min 48 sec) 
Heartbeat CPU  0 instructions:   28000000 cycles:   14262296 heartbeat IPC: 1.78517 cumulative IPC: 1.96322 (Simulation time: 0 hr 5 min 50 sec) 
Heartbeat CPU  1 instructions:   29000000 cycles:   14552350 heartbeat IPC: 1.82464 cumulative IPC: 1.99281 (Simulation time: 0 hr 5 min 56 sec) 
Heartbeat CPU  2 instructions:   35000003 cycles:   14586267 heartbeat IPC: 1.78604 cumulative IPC: 2.39952 (Simulation time: 0 hr 5 min 57 sec) 
Heartbeat CPU  3 instructions:   29000002 cycles:   14701055 heartbeat IPC: 1.86465 cumulative IPC: 1.97265 (Simulation time: 0 hr 6 min 0 sec) 
Heartbeat CPU  0 instructions:   29000001 cycles:   14803585 heartbeat IPC: 1.84744 cumulative IPC: 1.95898 (Simulation time: 0 hr 6 min 2 sec) 
Heartbeat CPU  1 instructions:   30000000 cycles:   15075894 heartbeat IPC: 1.91006 cumulative IPC: 1.98993 (Simulation time: 0 hr 6 min 8 sec) 
Heartbeat CPU  2 instructions:   36000000 cycles:   15085901 heartbeat IPC: 2.00146 cumulative IPC: 2.38633 (Simulation time: 0 hr 6 min 9 sec) 
Heartbeat CPU  3 instructions:   30000000 cycles:   15309070 heartbeat IPC: 1.64469 cumulative IPC: 1.95962 (Simulation time: 0 hr 6 min 14 sec) 
Heartbeat CPU  0 instructions:   30000002 cycles:   15339832 heartbeat IPC: 1.86481 cumulative IPC: 1.95569 (Simulation time: 0 hr 6 min 15 sec) 
Heartbeat CPU  2 instructions:   37000000 cycles:   15397326 heartbeat IPC: 3.21105 cumulative IPC: 2.40301 (Simulation time: 0 hr 6 min 17 sec) 
Heartbeat CPU  1 instructions:   31000002 cycles:   15547518 heartbeat IPC: 2.12034 cumulative IPC: 1.99389 (Simulation time: 0 hr 6 min 21 sec) 
Heartbeat CPU  2 instructions:   38000003 cycles:   15683146 heartbeat IPC: 3.49872 cumulative IPC: 2.42298 (Simulation time: 0 hr 6 min 24 sec) 
Heartbeat CPU  3 instructions:   31000003 cycles:   15777767 heartbeat IPC: 2.13358 cumulative IPC: 1.96479 (Simulation time: 0 hr 6 min 27 sec) 
Heartbeat CPU  0 instructions:   31000000 cycles:   15884462 heartbeat IPC: 1.83611 cumulative IPC: 1.95159 (Simulation time: 0 hr 6 min 30 sec) 
Heartbeat CPU  2 instructions:   39000001 cycles:   15994388 heartbeat IPC: 3.21293 cumulative IPC: 2.43836 (Simulation time: 0 hr 6 min 32 sec) 
Heartbeat CPU  1 instructions:   32000000 cycles:   16041419 heartbeat IPC: 2.02469 cumulative IPC: 1.99484 (Simulation time: 0 hr 6 min 34 sec) 
Heartbeat CPU  3 instructions:   32000000 cycles:   16247492 heartbeat IPC: 2.12890 cumulative IPC: 1.96953 (Simulation time: 0 hr 6 min 39 sec) 
Heartbeat CPU  0 instructions:   32000000 cycles:   16405630 heartbeat IPC: 1.91877 cumulative IPC: 1.95055 (Simulation time: 0 hr 6 min 42 sec) 
Heartbeat CPU  2 instructions:   40000000 cycles:   16491345 heartbeat IPC: 2.01224 cumulative IPC: 2.42551 (Simulation time: 0 hr 6 min 45 sec) 
Heartbeat CPU  1 instructions:   33000000 cycles:   16538437 heartbeat IPC: 2.01200 cumulative IPC: 1.99535 (Simulation time: 0 hr 6 min 46 sec) 
Heartbeat CPU  3 instructions:   33000000 cycles:   16737507 heartbeat IPC: 2.04075 cumulative IPC: 1.97162 (Simulation time: 0 hr 6 min 50 sec) 
Heartbeat CPU  2 instructions:   41000000 cycles:   16852217 heartbeat IPC: 2.77107 cumulative IPC: 2.43291 (Simulation time: 0 hr 6 min 53 sec) 
Heartbeat CPU  0 instructions:   33000002 cycles:   16983251 heartbeat IPC: 1.73124 cumulative IPC: 1.94309 (Simulation time: 0 hr 6 min 56 sec) 
Heartbeat CPU  1 instructions:   34000001 cycles:   17071524 heartbeat IPC: 1.87587 cumulative IPC: 1.99162 (Simulation time: 0 hr 6 min 58 sec) 
Heartbeat CPU  2 instructions:   42000000 cycles:   17263181 heartbeat IPC: 2.43330 cumulative IPC: 2.43292 (Simulation time: 0 hr 7 min 3 sec) 
Heartbeat CPU  3 instructions:   34000001 cycles:   17269047 heartbeat IPC: 1.88133 cumulative IPC: 1.96884 (Simulation time: 0 hr 7 min 3 sec) 
Heartbeat CPU  0 instructions:   34000003 cycles:   17499731 heartbeat IPC: 1.93619 cumulative IPC: 1.94289 (Simulation time: 0 hr 7 min 9 sec) 
Heartbeat CPU  2 instructions:   43000001 cycles:   17546084 heartbeat IPC: 3.53478 cumulative IPC: 2.45069 (Simulation time: 0 hr 7 min 10 sec) 
Heartbeat CPU  1 instructions:   35000002 cycles:   17601430 heartbeat IPC: 1.88713 cumulative IPC: 1.98847 (Simulation time: 0 hr 7 min 12 sec) 
Heartbeat CPU  3 instructions:   35000001 cycles:   17780484 heartbeat IPC: 1.95528 cumulative IPC: 1.96845 (Simulation time: 0 hr 7 min 17 sec) 
Heartbeat CPU  2 instructions:   44000000 cycles:   17825188 heartbeat IPC: 3.58289 cumulative IPC: 2.46842 (Simulation time: 0 hr 7 min 18 sec) 
Heartbeat CPU  0 instructions:   35000000 cycles:   18008561 heartbeat IPC: 1.96529 cumulative IPC: 1.94352 (Simulation time: 0 hr 7 min 23 sec) 
Heartbeat CPU  2 instructions:   45000001 cycles:   18115397 heartbeat IPC: 3.44580 cumulative IPC: 2.48407 (Simulation time: 0 hr 7 min 26 sec) 
Heartbeat CPU  1 instructions:   36000000 cycles:   18132213 heartbeat IPC: 1.88401 cumulative IPC: 1.98542 (Simulation time: 0 hr 7 min 26 sec) 
Heartbeat CPU  3 instructions:   36000000 cycles:   18282284 heartbeat IPC: 1.99282 cumulative IPC: 1.96912 (Simulation time: 0 hr 7 min 31 sec) 
Heartbeat CPU  2 instructions:   46000001 cycles:   18394526 heartbeat IPC: 3.58257 cumulative IPC: 2.50074 (Simulation time: 0 hr 7 min 33 sec) 
Heartbeat CPU  0 instructions:   36000000 cycles:   18575932 heartbeat IPC: 1.76252 cumulative IPC: 1.93799 (Simulation time: 0 hr 7 min 38 sec) 
Heartbeat CPU  1 instructions:   37000000 cycles:   18650885 heartbeat IPC: 1.92800 cumulative IPC: 1.98382 (Simulation time: 0 hr 7 min 40 sec) 
Heartbeat CPU  2 instructions:   47000003 cycles:   18682414 heartbeat IPC: 3.47358 cumulative IPC: 2.51573 (Simulation time: 0 hr 7 min 41 sec) 
Heartbeat CPU  3 instructions:   37000000 cycles:   18834839 heartbeat IPC: 1.80977 cumulative IPC: 1.96444 (Simulation time: 0 hr 7 min 45 sec) 
Heartbeat CPU  2 instructions:   48000000 cycles:   18972201 heartbeat IPC: 3.45080 cumulative IPC: 2.53002 (Simulation time: 0 hr 7 min 48 sec) 
Heartbeat CPU  1 instructions:   38000002 cycles:   19040850 heartbeat IPC: 2.56434 cumulative IPC: 1.99571 (Simulation time: 0 hr 7 min 50 sec) 
Heartbeat CPU  0 instructions:   37000000 cycles:   19110907 heartbeat IPC: 1.86925 cumulative IPC: 1.93607 (Simulation time: 0 hr 7 min 52 sec) 
Heartbeat CPU  2 instructions:   49000002 cycles:   19264923 heartbeat IPC: 3.41622 cumulative IPC: 2.54348 (Simulation time: 0 hr 7 min 56 sec) 
Heartbeat CPU  3 instructions:   38000003 cycles:   19362617 heartbeat IPC: 1.89474 cumulative IPC: 1.96254 (Simulation time: 0 hr 7 min 59 sec) 
Heartbeat CPU  1 instructions:   39000003 cycles:   19369953 heartbeat IPC: 3.03857 cumulative IPC: 2.01343 (Simulation time: 0 hr 7 min 59 sec) 
Heartbeat CPU  2 instructions:   50000001 cycles:   19557565 heartbeat IPC: 3.41714 cumulative IPC: 2.55656 (Simulation time: 0 hr 8 min 4 sec) 
Heartbeat CPU  0 instructions:   38000003 cycles:   19648325 heartbeat IPC: 1.86075 cumulative IPC: 1.93401 (Simulation time: 0 hr 8 min 6 sec) 
Heartbeat CPU  2 instructions:   51000003 cycles:   19844361 heartbeat IPC: 3.48681 cumulative IPC: 0.05039 (Simulation time: 0 hr 8 min 11 sec) 
Heartbeat CPU  3 instructions:   39000000 cycles:   19880534 heartbeat IPC: 1.93081 cumulative IPC: 1.96172 (Simulation time: 0 hr 8 min 12 sec) 
Heartbeat CPU  1 instructions:   40000000 cycles:   19895361 heartbeat IPC: 1.90328 cumulative IPC: 2.01052 (Simulation time: 0 hr 8 min 12 sec) 
Heartbeat CPU  2 instructions:   52000000 cycles:   20131018 heartbeat IPC: 3.48848 cumulative IPC: 0.09935 (Simulation time: 0 hr 8 min 18 sec) 
Heartbeat CPU  0 instructions:   39000001 cycles:   20189682 heartbeat IPC: 1.84721 cumulative IPC: 1.93168 (Simulation time: 0 hr 8 min 20 sec) 
Heartbeat CPU  1 instructions:   41000003 cycles:   20267704 heartbeat IPC: 2.68570 cumulative IPC: 2.02292 (Simulation time: 0 hr 8 min 22 sec) 
Heartbeat CPU  3 instructions:   40000000 cycles:   20424766 heartbeat IPC: 1.83745 cumulative IPC: 1.95841 (Simulation time: 0 hr 8 min 26 sec) 
Heartbeat CPU  2 instructions:   53000003 cycles:   20441941 heartbeat IPC: 3.21624 cumulative IPC: 0.14676 (Simulation time: 0 hr 8 min 26 sec) 
Heartbeat CPU  2 instructions:   54000002 cycles:   20732625 heartbeat IPC: 3.44016 cumulative IPC: 0.19293 (Simulation time: 0 hr 8 min 33 sec) 
Heartbeat CPU  1 instructions:   42000003 cycles:   20755914 heartbeat IPC: 2.04830 cumulative IPC: 2.02352 (Simulation time: 0 hr 8 min 33 sec) 
Heartbeat CPU  0 instructions:   40000000 cycles:   20835311 heartbeat IPC: 1.54888 cumulative IPC: 1.91982 (Simulation time: 0 hr 8 min 36 sec) 
Heartbeat CPU  3 instructions:   41000000 cycles:   20933871 heartbeat IPC: 1.96423 cumulative IPC: 1.95855 (Simulation time: 0 hr 8 min 38 sec) 
Heartbeat CPU  1 instructions:   43000001 cycles:   21054262 heartbeat IPC: 3.35178 cumulative IPC: 2.04234 (Simulation time: 0 hr 8 min 42 sec) 
Heartbeat CPU  2 instructions:   55000003 cycles:   21062349 heartbeat IPC: 3.03284 cumulative IPC: 0.23739 (Simulation time: 0 hr 8 min 42 sec) 
Heartbeat CPU  1 instructions:   44000000 cycles:   21346911 heartbeat IPC: 3.41706 cumulative IPC: 2.06119 (Simulation time: 0 hr 8 min 50 sec) 
Heartbeat CPU  0 instructions:   41000003 cycles:   21354388 heartbeat IPC: 1.92650 cumulative IPC: 1.91998 (Simulation time: 0 hr 8 min 50 sec) 
Heartbeat CPU  2 instructions:   56000000 cycles:   21361836 heartbeat IPC: 3.33903 cumulative IPC: 0.28087 (Simulation time: 0 hr 8 min 50 sec) 
Heartbeat CPU  3 instructions:   42000000 cycles:   21447660 heartbeat IPC: 1.94632 cumulative IPC: 1.95826 (Simulation time: 0 hr 8 min 52 sec) 
Heartbeat CPU  1 instructions:   45000002 cycles:   21634075 heartbeat IPC: 3.48234 cumulative IPC: 2.08005 (Simulation time: 0 hr 8 min 58 sec) 
Heartbeat CPU  2 instructions:   57000000 cycles:   21649192 heartbeat IPC: 3.48000 cumulative IPC: 0.32334 (Simulation time: 0 hr 8 min 58 sec) 
Heartbeat CPU  3 instructions:   43000003 cycles:   21791395 heartbeat IPC: 2.90923 cumulative IPC: 1.97326 (Simulation time: 0 hr 9 min 3 sec) 
Heartbeat CPU  0 instructions:   42000000 cycles:   21865295 heartbeat IPC: 1.95730 cumulative IPC: 1.92085 (Simulation time: 0 hr 9 min 5 sec) 
Heartbeat CPU  1 instructions:   46000003 cycles:   21984473 heartbeat IPC: 2.85390 cumulative IPC: 2.09239 (Simulation time: 0 hr 9 min 8 sec) 
Heartbeat CPU  2 instructions:   58000003 cycles:   22006903 heartbeat IPC: 2.79556 cumulative IPC: 0.36352 (Simulation time: 0 hr 9 min 8 sec) 
Heartbeat CPU  3 instructions:   44000000 cycles:   22072721 heartbeat IPC: 3.55458 cumulative IPC: 1.99341 (Simulation time: 0 hr 9 min 10 sec) 
Heartbeat CPU  3 instructions:   45000000 cycles:   22349498 heartbeat IPC: 3.61302 cumulative IPC: 2.01347 (Simulation time: 0 hr 9 min 17 sec) 
Heartbeat CPU  0 instructions:   43000001 cycles:   22352594 heartbeat IPC: 2.05213 cumulative IPC: 1.92371 (Simulation time: 0 hr 9 min 17 sec) 
Heartbeat CPU  1 instructions:   47000002 cycles:   22479913 heartbeat IPC: 2.01841 cumulative IPC: 2.09076 (Simulation time: 0 hr 9 min 20 sec) 
Heartbeat CPU  3 instructions:   46000000 cycles:   22619711 heartbeat IPC: 3.70078 cumulative IPC: 2.03362 (Simulation time: 0 hr 9 min 24 sec) 
Heartbeat CPU  2 instructions:   59000000 cycles:   22637984 heartbeat IPC: 1.58458 cumulative IPC: 0.39756 (Simulation time: 0 hr 9 min 24 sec) 
Heartbeat CPU  0 instructions:   44000000 cycles:   22835028 heartbeat IPC: 2.07282 cumulative IPC: 1.92686 (Simulation time: 0 hr 9 min 29 sec) 
Heartbeat CPU  3 instructions:   47000003 cycles:   22886793 heartbeat IPC: 3.74418 cumulative IPC: 2.05359 (Simulation time: 0 hr 9 min 31 sec) 
Heartbeat CPU  1 instructions:   48000000 cycles:   22963892 heartbeat IPC: 2.06620 cumulative IPC: 2.09024 (Simulation time: 0 hr 9 min 33 sec) 
Heartbeat CPU  3 instructions:   48000000 cycles:   23151799 heartbeat IPC: 3.77349 cumulative IPC: 2.07327 (Simulation time: 0 hr 9 min 38 sec) 
Heartbeat CPU  2 instructions:   60000000 cycles:   23240929 heartbeat IPC: 1.65853 cumulative IPC: 0.43028 (Simulation time: 0 hr 9 min 40 sec) 
Heartbeat CPU  0 instructions:   45000000 cycles:   23311331 heartbeat IPC: 2.09950 cumulative IPC: 1.93039 (Simulation time: 0 hr 9 min 42 sec) 
Heartbeat CPU  3 instructions:   49000001 cycles:   23417707 heartbeat IPC: 3.76070 cumulative IPC: 2.09243 (Simulation time: 0 hr 9 min 45 sec) 
Heartbeat CPU  1 instructions:   49000003 cycles:   23478761 heartbeat IPC: 1.94225 cumulative IPC: 2.08699 (Simulation time: 0 hr 9 min 47 sec) 
Heartbeat CPU  3 instructions:   50000001 cycles:   23683323 heartbeat IPC: 3.76483 cumulative IPC: 2.11119 (Simulation time: 0 hr 9 min 52 sec) 
Heartbeat CPU  2 instructions:   61000000 cycles:   23823582 heartbeat IPC: 1.71629 cumulative IPC: 0.46173 (Simulation time: 0 hr 9 min 56 sec) 
Heartbeat CPU  0 instructions:   46000003 cycles:   23827927 heartbeat IPC: 1.93575 cumulative IPC: 1.93051 (Simulation time: 0 hr 9 min 56 sec) 
Heartbeat CPU  3 instructions:   51000000 cycles:   23948146 heartbeat IPC: 3.77610 cumulative IPC: 0.04176 (Simulation time: 0 hr 9 min 59 sec) 
Heartbeat CPU  1 instructions:   50000000 cycles:   23987556 heartbeat IPC: 1.96542 cumulative IPC: 2.08441 (Simulation time: 0 hr 10 min 0 sec) 
Heartbeat CPU  3 instructions:   52000000 cycles:   24213077 heartbeat IPC: 3.77457 cumulative IPC: 0.08260 (Simulation time: 0 hr 10 min 6 sec) 
Heartbeat CPU  2 instructions:   62000002 cycles:   24276558 heartbeat IPC: 2.20763 cumulative IPC: 0.49430 (Simulation time: 0 hr 10 min 8 sec) 
Heartbeat CPU  0 instructions:   47000000 cycles:   24308084 heartbeat IPC: 2.08265 cumulative IPC: 1.93351 (Simulation time: 0 hr 10 min 9 sec) 
Heartbeat CPU  1 instructions:   51000002 cycles:   24481091 heartbeat IPC: 2.02620 cumulative IPC: 0.04085 (Simulation time: 0 hr 10 min 14 sec) 
Heartbeat CPU  3 instructions:   53000000 cycles:   24483333 heartbeat IPC: 3.70020 cumulative IPC: 0.12253 (Simulation time: 0 hr 10 min 14 sec) 
Heartbeat CPU  2 instructions:   63000000 cycles:   24575948 heartbeat IPC: 3.34012 cumulative IPC: 0.52897 (Simulation time: 0 hr 10 min 17 sec) 
Heartbeat CPU  3 instructions:   54000002 cycles:   24751979 heartbeat IPC: 3.72238 cumulative IPC: 0.16160 (Simulation time: 0 hr 10 min 22 sec) 
Heartbeat CPU  0 instructions:   48000000 cycles:   24826174 heartbeat IPC: 1.93017 cumulative IPC: 1.93344 (Simulation time: 0 hr 10 min 24 sec) 
Heartbeat CPU  2 instructions:   64000000 cycles:   24875671 heartbeat IPC: 3.33641 cumulative IPC: 0.56280 (Simulation time: 0 hr 10 min 26 sec) 
Heartbeat CPU  1 instructions:   52000000 cycles:   24959215 heartbeat IPC: 2.09150 cumulative IPC: 0.08013 (Simulation time: 0 hr 10 min 28 sec) 
Heartbeat CPU  3 instructions:   55000002 cycles:   25020044 heartbeat IPC: 3.73044 cumulative IPC: 0.19984 (Simulation time: 0 hr 10 min 30 sec) 
Heartbeat CPU  2 instructions:   65000003 cycles:   25174288 heartbeat IPC: 3.34878 cumulative IPC: 0.59585 (Simulation time: 0 hr 10 min 34 sec) 
Heartbeat CPU  3 instructions:   56000000 cycles:   25286103 heartbeat IPC: 3.75856 cumulative IPC: 0.23728 (Simulation time: 0 hr 10 min 38 sec) 
Heartbeat CPU  0 instructions:   49000000 cycles:   25322247 heartbeat IPC: 2.01583 cumulative IPC: 1.93506 (Simulation time: 0 hr 10 min 39 sec) 
Heartbeat CPU  1 instructions:   53000002 cycles:   25521248 heartbeat IPC: 1.77926 cumulative IPC: 0.11755 (Simulation time: 0 hr 10 min 44 sec) 
Heartbeat CPU  3 instructions:   57000000 cycles:   25554280 heartbeat IPC: 3.72888 cumulative IPC: 0.27393 (Simulation time: 0 hr 10 min 44 sec) 
Heartbeat CPU  2 instructions:   66000000 cycles:   25668211 heartbeat IPC: 2.02460 cumulative IPC: 0.62334 (Simulation time: 0 hr 10 min 48 sec) 
Heartbeat CPU  0 instructions:   50000002 cycles:   25811370 heartbeat IPC: 2.04448 cumulative IPC: 1.93713 (Simulation time: 0 hr 10 min 51 sec) 

Warmup complete CPU  0 instructions:   50000002 cycles:   25811370 (Simulation time: 0 hr 10 min 51 sec) 
Warmup complete CPU  1 instructions:   53630625 cycles:   25811370 (Simulation time: 0 hr 10 min 51 sec) 
Warmup complete CPU  2 instructions:   66226796 cycles:   25811370 (Simulation time: 0 hr 10 min 51 sec) 
Warmup complete CPU  3 instructions:   57921458 cycles:   25811370 (Simulation time: 0 hr 10 min 51 sec) 

Heartbeat CPU  3 instructions:   58000001 cycles:   26239989 heartbeat IPC: 1.45835 cumulative IPC: 0.18325 (Simulation time: 0 hr 10 min 53 sec) 
Heartbeat CPU  1 instructions:   54000003 cycles:   27508794 heartbeat IPC: 0.50313 cumulative IPC: 0.21761 (Simulation time: 0 hr 10 min 57 sec) 
Heartbeat CPU  2 instructions:   67000003 cycles:   30289834 heartbeat IPC: 0.21637 cumulative IPC: 0.17265 (Simulation time: 0 hr 11 min 6 sec) 
Heartbeat CPU  0 instructions:   51000003 cycles:   30382104 heartbeat IPC: 0.21878 cumulative IPC: 0.21878 (Simulation time: 0 hr 11 min 7 sec) 
Heartbeat CPU  3 instructions:   59000000 cycles:   30802295 heartbeat IPC: 0.21919 cumulative IPC: 0.21610 (Simulation time: 0 hr 11 min 8 sec) 
Heartbeat CPU  1 instructions:   55000002 cycles:   32058051 heartbeat IPC: 0.21982 cumulative IPC: 0.21922 (Simulation time: 0 hr 11 min 12 sec) 
Heartbeat CPU  0 instructions:   52000000 cycles:   35096881 heartbeat IPC: 0.21210 cumulative IPC: 0.21539 (Simulation time: 0 hr 11 min 22 sec) 
Heartbeat CPU  3 instructions:   60000000 cycles:   35305250 heartbeat IPC: 0.22208 cumulative IPC: 0.21893 (Simulation time: 0 hr 11 min 23 sec) 
Heartbeat CPU  2 instructions:   68000000 cycles:   36102696 heartbeat IPC: 0.17203 cumulative IPC: 0.17230 (Simulation time: 0 hr 11 min 26 sec) 
Heartbeat CPU  1 instructions:   56000000 cycles:   36620175 heartbeat IPC: 0.21920 cumulative IPC: 0.21921 (Simulation time: 0 hr 11 min 27 sec) 
Heartbeat CPU  3 instructions:   61000001 cycles:   39302387 heartbeat IPC: 0.25018 cumulative IPC: 0.22819 (Simulation time: 0 hr 11 min 36 sec) 
Heartbeat CPU  0 instructions:   53000000 cycles:   39956647 heartbeat IPC: 0.20577 cumulative IPC: 0.21208 (Simulation time: 0 hr 11 min 38 sec) 
Heartbeat CPU  1 instructions:   57000002 cycles:   41244371 heartbeat IPC: 0.21625 cumulative IPC: 0.21832 (Simulation time: 0 hr 11 min 42 sec) 
Heartbeat CPU  2 instructions:   69000003 cycles:   41930432 heartbeat IPC: 0.17159 cumulative IPC: 0.17205 (Simulation time: 0 hr 11 min 45 sec) 
Heartbeat CPU  3 instructions:   62000001 cycles:   42003980 heartbeat IPC: 0.37015 cumulative IPC: 0.25188 (Simulation time: 0 hr 11 min 46 sec) 
Heartbeat CPU  3 instructions:   63000002 cycles:   44166569 heartbeat IPC: 0.46241 cumulative IPC: 0.27668 (Simulation time: 0 hr 11 min 54 sec) 
Heartbeat CPU  0 instructions:   54000001 cycles:   44664756 heartbeat IPC: 0.21240 cumulative IPC: 0.21216 (Simulation time: 0 hr 11 min 55 sec) 
Heartbeat CPU  1 instructions:   58000000 cycles:   45807301 heartbeat IPC: 0.21916 cumulative IPC: 0.21851 (Simulation time: 0 hr 11 min 59 sec) 
Heartbeat CPU  2 instructions:   70000002 cycles:   47740795 heartbeat IPC: 0.17211 cumulative IPC: 0.17206 (Simulation time: 0 hr 12 min 6 sec) 
Heartbeat CPU  3 instructions:   64000000 cycles:   48711441 heartbeat IPC: 0.22003 cumulative IPC: 0.26544 (Simulation time: 0 hr 12 min 9 sec) 
Heartbeat CPU  0 instructions:   55000000 cycles:   49362839 heartbeat IPC: 0.21285 cumulative IPC: 0.21230 (Simulation time: 0 hr 12 min 11 sec) 
Heartbeat CPU  1 instructions:   59000002 cycles:   50476215 heartbeat IPC: 0.21418 cumulative IPC: 0.21769 (Simulation time: 0 hr 12 min 14 sec) 
Heartbeat CPU  3 instructions:   65000001 cycles:   51583809 heartbeat IPC: 0.34815 cumulative IPC: 0.27466 (Simulation time: 0 hr 12 min 18 sec) 
Heartbeat CPU  2 instructions:   71000002 cycles:   52339576 heartbeat IPC: 0.21745 cumulative IPC: 0.17993 (Simulation time: 0 hr 12 min 22 sec) 
Heartbeat CPU  0 instructions:   56000000 cycles:   53995676 heartbeat IPC: 0.21585 cumulative IPC: 0.21288 (Simulation time: 0 hr 12 min 27 sec) 
Heartbeat CPU  3 instructions:   66000001 cycles:   54387108 heartbeat IPC: 0.35672 cumulative IPC: 0.28271 (Simulation time: 0 hr 12 min 28 sec) 
Heartbeat CPU  1 instructions:   60000000 cycles:   55032623 heartbeat IPC: 0.21947 cumulative IPC: 0.21797 (Simulation time: 0 hr 12 min 30 sec) 
Heartbeat CPU  2 instructions:   72000000 cycles:   56617657 heartbeat IPC: 0.23375 cumulative IPC: 0.18740 (Simulation time: 0 hr 12 min 35 sec) 
Heartbeat CPU  2 instructions:   73000003 cycles:   58523443 heartbeat IPC: 0.52472 cumulative IPC: 0.20706 (Simulation time: 0 hr 12 min 43 sec) 
Heartbeat CPU  0 instructions:   57000001 cycles:   58640286 heartbeat IPC: 0.21530 cumulative IPC: 0.21323 (Simulation time: 0 hr 12 min 43 sec) 
Heartbeat CPU  1 instructions:   61000001 cycles:   58926440 heartbeat IPC: 0.25682 cumulative IPC: 0.22254 (Simulation time: 0 hr 12 min 45 sec) 
Heartbeat CPU  3 instructions:   67000001 cycles:   58975341 heartbeat IPC: 0.21795 cumulative IPC: 0.27375 (Simulation time: 0 hr 12 min 45 sec) 
Heartbeat CPU  2 instructions:   74000002 cycles:   60327260 heartbeat IPC: 0.55438 cumulative IPC: 0.22521 (Simulation time: 0 hr 12 min 50 sec) 
Heartbeat CPU  1 instructions:   62000002 cycles:   61574610 heartbeat IPC: 0.37762 cumulative IPC: 0.23402 (Simulation time: 0 hr 12 min 56 sec) 
Heartbeat CPU  2 instructions:   75000001 cycles:   63006594 heartbeat IPC: 0.37323 cumulative IPC: 0.23587 (Simulation time: 0 hr 13 min 2 sec) 
Heartbeat CPU  0 instructions:   58000000 cycles:   63300419 heartbeat IPC: 0.21459 cumulative IPC: 0.21340 (Simulation time: 0 hr 13 min 3 sec) 
Heartbeat CPU  1 instructions:   63000001 cycles:   63673596 heartbeat IPC: 0.47642 cumulative IPC: 0.24746 (Simulation time: 0 hr 13 min 5 sec) 
Heartbeat CPU  3 instructions:   68000000 cycles:   63849197 heartbeat IPC: 0.20518 cumulative IPC: 0.26496 (Simulation time: 0 hr 13 min 6 sec) 
Heartbeat CPU  2 instructions:   76000000 cycles:   65740253 heartbeat IPC: 0.36581 cumulative IPC: 0.24477 (Simulation time: 0 hr 13 min 13 sec) 
Heartbeat CPU  0 instructions:   59000000 cycles:   67760330 heartbeat IPC: 0.22422 cumulative IPC: 0.21455 (Simulation time: 0 hr 13 min 20 sec) 
Heartbeat CPU  1 instructions:   64000000 cycles:   68023204 heartbeat IPC: 0.22991 cumulative IPC: 0.24565 (Simulation time: 0 hr 13 min 20 sec) 
Heartbeat CPU  3 instructions:   69000000 cycles:   68598018 heartbeat IPC: 0.21058 cumulative IPC: 0.25893 (Simulation time: 0 hr 13 min 22 sec) 
Heartbeat CPU  1 instructions:   65000001 cycles:   70689478 heartbeat IPC: 0.37506 cumulative IPC: 0.25334 (Simulation time: 0 hr 13 min 30 sec) 
Heartbeat CPU  2 instructions:   77000000 cycles:   71311424 heartbeat IPC: 0.17950 cumulative IPC: 0.23677 (Simulation time: 0 hr 13 min 33 sec) 
Heartbeat CPU  0 instructions:   60000000 cycles:   72369248 heartbeat IPC: 0.21697 cumulative IPC: 0.21479 (Simulation time: 0 hr 13 min 37 sec) 
Heartbeat CPU  1 instructions:   66000003 cycles:   73174591 heartbeat IPC: 0.40240 cumulative IPC: 0.26116 (Simulation time: 0 hr 13 min 39 sec) 
Heartbeat CPU  3 instructions:   70000000 cycles:   73256310 heartbeat IPC: 0.21467 cumulative IPC: 0.25458 (Simulation time: 0 hr 13 min 40 sec) 
Heartbeat CPU  0 instructions:   61000001 cycles:   76555132 heartbeat IPC: 0.23890 cumulative IPC: 0.21678 (Simulation time: 0 hr 13 min 51 sec) 
Heartbeat CPU  2 instructions:   78000000 cycles:   76937299 heartbeat IPC: 0.17775 cumulative IPC: 0.23028 (Simulation time: 0 hr 13 min 52 sec) 
Heartbeat CPU  1 instructions:   67000000 cycles:   77884784 heartbeat IPC: 0.21230 cumulative IPC: 0.25674 (Simulation time: 0 hr 13 min 55 sec) 
Heartbeat CPU  3 instructions:   71000000 cycles:   77905012 heartbeat IPC: 0.21511 cumulative IPC: 0.25106 (Simulation time: 0 hr 13 min 55 sec) 
Heartbeat CPU  0 instructions:   62000001 cycles:   81005515 heartbeat IPC: 0.22470 cumulative IPC: 0.21741 (Simulation time: 0 hr 14 min 6 sec) 
Heartbeat CPU  3 instructions:   72000000 cycles:   82520653 heartbeat IPC: 0.21665 cumulative IPC: 0.24826 (Simulation time: 0 hr 14 min 11 sec) 
Heartbeat CPU  1 instructions:   68000000 cycles:   82533573 heartbeat IPC: 0.21511 cumulative IPC: 0.25333 (Simulation time: 0 hr 14 min 11 sec) 
Heartbeat CPU  2 instructions:   79000003 cycles:   82755856 heartbeat IPC: 0.17186 cumulative IPC: 0.22431 (Simulation time: 0 hr 14 min 12 sec) 
Heartbeat CPU  0 instructions:   63000002 cycles:   85783843 heartbeat IPC: 0.20928 cumulative IPC: 0.21677 (Simulation time: 0 hr 14 min 22 sec) 
Heartbeat CPU  3 instructions:   73000000 cycles:   86603035 heartbeat IPC: 0.24496 cumulative IPC: 0.24804 (Simulation time: 0 hr 14 min 24 sec) 
Heartbeat CPU  1 instructions:   69000001 cycles:   87191891 heartbeat IPC: 0.21467 cumulative IPC: 0.25039 (Simulation time: 0 hr 14 min 26 sec) 
Heartbeat CPU  2 instructions:   80000000 cycles:   88489348 heartbeat IPC: 0.17441 cumulative IPC: 0.21975 (Simulation time: 0 hr 14 min 31 sec) 
Heartbeat CPU  0 instructions:   64000000 cycles:   90516599 heartbeat IPC: 0.21129 cumulative IPC: 0.21637 (Simulation time: 0 hr 14 min 38 sec) 
Heartbeat CPU  3 instructions:   74000003 cycles:   91239163 heartbeat IPC: 0.21570 cumulative IPC: 0.24574 (Simulation time: 0 hr 14 min 40 sec) 
Heartbeat CPU  1 instructions:   70000002 cycles:   91774426 heartbeat IPC: 0.21822 cumulative IPC: 0.24816 (Simulation time: 0 hr 14 min 43 sec) 
Heartbeat CPU  3 instructions:   75000000 cycles:   93817653 heartbeat IPC: 0.38782 cumulative IPC: 0.25113 (Simulation time: 0 hr 14 min 50 sec) 
Heartbeat CPU  2 instructions:   81000001 cycles:   94224514 heartbeat IPC: 0.17436 cumulative IPC: 0.21594 (Simulation time: 0 hr 14 min 51 sec) 
Heartbeat CPU  0 instructions:   65000002 cycles:   95319784 heartbeat IPC: 0.20820 cumulative IPC: 0.21580 (Simulation time: 0 hr 14 min 55 sec) 
Heartbeat CPU  1 instructions:   71000002 cycles:   96321922 heartbeat IPC: 0.21990 cumulative IPC: 0.24634 (Simulation time: 0 hr 14 min 58 sec) 
Heartbeat CPU  3 instructions:   76000000 cycles:   98564846 heartbeat IPC: 0.21065 cumulative IPC: 0.24849 (Simulation time: 0 hr 15 min 5 sec) 
Heartbeat CPU  2 instructions:   82000000 cycles:   99970808 heartbeat IPC: 0.17403 cumulative IPC: 0.21269 (Simulation time: 0 hr 15 min 10 sec) 
Heartbeat CPU  0 instructions:   66000001 cycles:  100067144 heartbeat IPC: 0.21064 cumulative IPC: 0.21547 (Simulation time: 0 hr 15 min 10 sec) 
Heartbeat CPU  1 instructions:   72000000 cycles:  100793919 heartbeat IPC: 0.22361 cumulative IPC: 0.24498 (Simulation time: 0 hr 15 min 13 sec) 
Heartbeat CPU  3 instructions:   77000000 cycles:  103125278 heartbeat IPC: 0.21928 cumulative IPC: 0.24677 (Simulation time: 0 hr 15 min 20 sec) 
Heartbeat CPU  0 instructions:   67000002 cycles:  104869808 heartbeat IPC: 0.20822 cumulative IPC: 0.21503 (Simulation time: 0 hr 15 min 26 sec) 
Heartbeat CPU  1 instructions:   73000002 cycles:  105422595 heartbeat IPC: 0.21604 cumulative IPC: 0.24330 (Simulation time: 0 hr 15 min 28 sec) 
Heartbeat CPU  2 instructions:   83000003 cycles:  105754485 heartbeat IPC: 0.17290 cumulative IPC: 0.20981 (Simulation time: 0 hr 15 min 29 sec) 
Heartbeat CPU  3 instructions:   78000002 cycles:  107911310 heartbeat IPC: 0.20894 cumulative IPC: 0.24456 (Simulation time: 0 hr 15 min 36 sec) 
Heartbeat CPU  0 instructions:   68000000 cycles:  109550574 heartbeat IPC: 0.21364 cumulative IPC: 0.21495 (Simulation time: 0 hr 15 min 42 sec) 
Heartbeat CPU  1 instructions:   74000000 cycles:  110103848 heartbeat IPC: 0.21362 cumulative IPC: 0.24165 (Simulation time: 0 hr 15 min 43 sec) 
Heartbeat CPU  2 instructions:   84000000 cycles:  111520947 heartbeat IPC: 0.17342 cumulative IPC: 0.20737 (Simulation time: 0 hr 15 min 48 sec) 
Heartbeat CPU  3 instructions:   79000000 cycles:  112426872 heartbeat IPC: 0.22146 cumulative IPC: 0.24336 (Simulation time: 0 hr 15 min 51 sec) 
Heartbeat CPU  0 instructions:   69000002 cycles:  114302416 heartbeat IPC: 0.21045 cumulative IPC: 0.21471 (Simulation time: 0 hr 15 min 57 sec) 
Heartbeat CPU  1 instructions:   75000000 cycles:  114645916 heartbeat IPC: 0.22016 cumulative IPC: 0.24055 (Simulation time: 0 hr 15 min 58 sec) 
Heartbeat CPU  3 instructions:   80000000 cycles:  117167823 heartbeat IPC: 0.21093 cumulative IPC: 0.24167 (Simulation time: 0 hr 16 min 7 sec) 
Heartbeat CPU  2 instructions:   85000000 cycles:  117367431 heartbeat IPC: 0.17104 cumulative IPC: 0.20505 (Simulation time: 0 hr 16 min 7 sec) 
Heartbeat CPU  1 instructions:   76000000 cycles:  118583874 heartbeat IPC: 0.25394 cumulative IPC: 0.24112 (Simulation time: 0 hr 16 min 11 sec) 
Heartbeat CPU  0 instructions:   70000001 cycles:  119072961 heartbeat IPC: 0.20962 cumulative IPC: 0.21445 (Simulation time: 0 hr 16 min 13 sec) 
Heartbeat CPU  3 instructions:   81000003 cycles:  121981942 heartbeat IPC: 0.20772 cumulative IPC: 0.23998 (Simulation time: 0 hr 16 min 23 sec) 
Heartbeat CPU  2 instructions:   86000003 cycles:  123150043 heartbeat IPC: 0.17293 cumulative IPC: 0.20314 (Simulation time: 0 hr 16 min 27 sec) 
Heartbeat CPU  1 instructions:   77000001 cycles:  123222933 heartbeat IPC: 0.21556 cumulative IPC: 0.23990 (Simulation time: 0 hr 16 min 27 sec) 
Heartbeat CPU  0 instructions:   71000001 cycles:  123756184 heartbeat IPC: 0.21353 cumulative IPC: 0.21441 (Simulation time: 0 hr 16 min 29 sec) 
Heartbeat CPU  3 instructions:   82000003 cycles:  126675663 heartbeat IPC: 0.21305 cumulative IPC: 0.23872 (Simulation time: 0 hr 16 min 38 sec) 
Heartbeat CPU  1 instructions:   78000001 cycles:  127857038 heartbeat IPC: 0.21579 cumulative IPC: 0.23881 (Simulation time: 0 hr 16 min 42 sec) 
Heartbeat CPU  0 instructions:   72000000 cycles:  128377463 heartbeat IPC: 0.21639 cumulative IPC: 0.21450 (Simulation time: 0 hr 16 min 44 sec) 
Heartbeat CPU  2 instructions:   87000000 cycles:  128962345 heartbeat IPC: 0.17205 cumulative IPC: 0.20139 (Simulation time: 0 hr 16 min 46 sec) 
Heartbeat CPU  3 instructions:   83000001 cycles:  131352132 heartbeat IPC: 0.21384 cumulative IPC: 0.23762 (Simulation time: 0 hr 16 min 54 sec) 
Heartbeat CPU  1 instructions:   79000002 cycles:  132474234 heartbeat IPC: 0.21658 cumulative IPC: 0.23785 (Simulation time: 0 hr 16 min 58 sec) 
Heartbeat CPU  0 instructions:   73000002 cycles:  132955718 heartbeat IPC: 0.21842 cumulative IPC: 0.21466 (Simulation time: 0 hr 16 min 59 sec) 
Heartbeat CPU  2 instructions:   88000000 cycles:  134898363 heartbeat IPC: 0.16846 cumulative IPC: 0.19959 (Simulation time: 0 hr 17 min 6 sec) 
Heartbeat CPU  3 instructions:   84000000 cycles:  136134628 heartbeat IPC: 0.20910 cumulative IPC: 0.23638 (Simulation time: 0 hr 17 min 10 sec) 
Heartbeat CPU  1 instructions:   80000000 cycles:  137160624 heartbeat IPC: 0.21338 cumulative IPC: 0.23682 (Simulation time: 0 hr 17 min 13 sec) 
Heartbeat CPU  0 instructions:   74000000 cycles:  137400835 heartbeat IPC: 0.22497 cumulative IPC: 0.21507 (Simulation time: 0 hr 17 min 13 sec) 
Heartbeat CPU  2 instructions:   89000000 cycles:  140735207 heartbeat IPC: 0.17133 cumulative IPC: 0.19816 (Simulation time: 0 hr 17 min 24 sec) 
Heartbeat CPU  3 instructions:   85000000 cycles:  140988290 heartbeat IPC: 0.20603 cumulative IPC: 0.23510 (Simulation time: 0 hr 17 min 25 sec) 
Heartbeat CPU  1 instructions:   81000000 cycles:  141909464 heartbeat IPC: 0.21058 cumulative IPC: 0.23574 (Simulation time: 0 hr 17 min 27 sec) 
Heartbeat CPU  0 instructions:   75000002 cycles:  142072018 heartbeat IPC: 0.21408 cumulative IPC: 0.21503 (Simulation time: 0 hr 17 min 28 sec) 
Heartbeat CPU  3 instructions:   86000000 cycles:  145754054 heartbeat IPC: 0.20983 cumulative IPC: 0.23410 (Simulation time: 0 hr 17 min 40 sec) 
Heartbeat CPU  2 instructions:   90000000 cycles:  146439904 heartbeat IPC: 0.17529 cumulative IPC: 0.19708 (Simulation time: 0 hr 17 min 43 sec) 
Heartbeat CPU  1 instructions:   82000003 cycles:  146568327 heartbeat IPC: 0.21465 cumulative IPC: 0.23493 (Simulation time: 0 hr 17 min 43 sec) 
Heartbeat CPU  0 instructions:   76000000 cycles:  146628854 heartbeat IPC: 0.21945 cumulative IPC: 0.21520 (Simulation time: 0 hr 17 min 43 sec) 
Heartbeat CPU  3 instructions:   87000002 cycles:  150484257 heartbeat IPC: 0.21141 cumulative IPC: 0.23324 (Simulation time: 0 hr 17 min 56 sec) 
Heartbeat CPU  0 instructions:   77000002 cycles:  151114829 heartbeat IPC: 0.22292 cumulative IPC: 0.21548 (Simulation time: 0 hr 17 min 58 sec) 
Heartbeat CPU  1 instructions:   83000002 cycles:  151387310 heartbeat IPC: 0.20751 cumulative IPC: 0.23388 (Simulation time: 0 hr 17 min 59 sec) 
Heartbeat CPU  2 instructions:   91000003 cycles:  152302556 heartbeat IPC: 0.17057 cumulative IPC: 0.19585 (Simulation time: 0 hr 18 min 2 sec) 
Heartbeat CPU  3 instructions:   88000000 cycles:  155273480 heartbeat IPC: 0.20880 cumulative IPC: 0.23233 (Simulation time: 0 hr 18 min 11 sec) 
Heartbeat CPU  0 instructions:   78000001 cycles:  155907467 heartbeat IPC: 0.20865 cumulative IPC: 0.21523 (Simulation time: 0 hr 18 min 14 sec) 
Heartbeat CPU  1 instructions:   84000000 cycles:  156163082 heartbeat IPC: 0.20939 cumulative IPC: 0.23298 (Simulation time: 0 hr 18 min 14 sec) 
Heartbeat CPU  2 instructions:   92000000 cycles:  158120345 heartbeat IPC: 0.17189 cumulative IPC: 0.19480 (Simulation time: 0 hr 18 min 21 sec) 
Heartbeat CPU  3 instructions:   89000000 cycles:  159789799 heartbeat IPC: 0.22142 cumulative IPC: 0.23197 (Simulation time: 0 hr 18 min 26 sec) 
Heartbeat CPU  0 instructions:   79000002 cycles:  160617643 heartbeat IPC: 0.21231 cumulative IPC: 0.21512 (Simulation time: 0 hr 18 min 29 sec) 
Heartbeat CPU  1 instructions:   85000000 cycles:  161049139 heartbeat IPC: 0.20466 cumulative IPC: 0.23196 (Simulation time: 0 hr 18 min 30 sec) 
Heartbeat CPU  2 instructions:   93000000 cycles:  164005380 heartbeat IPC: 0.16992 cumulative IPC: 0.19374 (Simulation time: 0 hr 18 min 40 sec) 
Heartbeat CPU  3 instructions:   90000003 cycles:  164433281 heartbeat IPC: 0.21536 cumulative IPC: 0.23141 (Simulation time: 0 hr 18 min 42 sec) 
Heartbeat CPU  0 instructions:   80000000 cycles:  165289029 heartbeat IPC: 0.21407 cumulative IPC: 0.21509 (Simulation time: 0 hr 18 min 44 sec) 
Heartbeat CPU  1 instructions:   86000002 cycles:  165744902 heartbeat IPC: 0.21296 cumulative IPC: 0.23132 (Simulation time: 0 hr 18 min 46 sec) 
Heartbeat CPU  3 instructions:   91000003 cycles:  169146813 heartbeat IPC: 0.21216 cumulative IPC: 0.23078 (Simulation time: 0 hr 18 min 57 sec) 
Heartbeat CPU  2 instructions:   94000001 cycles:  169814002 heartbeat IPC: 0.17216 cumulative IPC: 0.19287 (Simulation time: 0 hr 18 min 59 sec) 
Heartbeat CPU  0 instructions:   81000002 cycles:  169986313 heartbeat IPC: 0.21289 cumulative IPC: 0.21502 (Simulation time: 0 hr 18 min 59 sec) 
Heartbeat CPU  1 instructions:   87000001 cycles:  170430122 heartbeat IPC: 0.21344 cumulative IPC: 0.23074 (Simulation time: 0 hr 19 min 1 sec) 
Heartbeat CPU  3 instructions:   92000000 cycles:  173840382 heartbeat IPC: 0.21306 cumulative IPC: 0.23022 (Simulation time: 0 hr 19 min 12 sec) 
Heartbeat CPU  0 instructions:   82000000 cycles:  174715770 heartbeat IPC: 0.21144 cumulative IPC: 0.21490 (Simulation time: 0 hr 19 min 15 sec) 
Heartbeat CPU  1 instructions:   88000000 cycles:  175062949 heartbeat IPC: 0.21585 cumulative IPC: 0.23028 (Simulation time: 0 hr 19 min 16 sec) 
Heartbeat CPU  2 instructions:   95000000 cycles:  175623803 heartbeat IPC: 0.17212 cumulative IPC: 0.19206 (Simulation time: 0 hr 19 min 18 sec) 
Heartbeat CPU  3 instructions:   93000000 cycles:  178469752 heartbeat IPC: 0.21601 cumulative IPC: 0.22978 (Simulation time: 0 hr 19 min 27 sec) 
Heartbeat CPU  0 instructions:   83000000 cycles:  179610662 heartbeat IPC: 0.20429 cumulative IPC: 0.21457 (Simulation time: 0 hr 19 min 31 sec) 
Heartbeat CPU  1 instructions:   89000001 cycles:  179739905 heartbeat IPC: 0.21381 cumulative IPC: 0.22978 (Simulation time: 0 hr 19 min 31 sec) 
Heartbeat CPU  2 instructions:   96000000 cycles:  181436648 heartbeat IPC: 0.17203 cumulative IPC: 0.19131 (Simulation time: 0 hr 19 min 37 sec) 
Heartbeat CPU  3 instructions:   94000003 cycles:  183039218 heartbeat IPC: 0.21884 cumulative IPC: 0.22947 (Simulation time: 0 hr 19 min 42 sec) 
Heartbeat CPU  1 instructions:   90000003 cycles:  184324617 heartbeat IPC: 0.21812 cumulative IPC: 0.22944 (Simulation time: 0 hr 19 min 46 sec) 
Heartbeat CPU  0 instructions:   84000000 cycles:  184497125 heartbeat IPC: 0.20465 cumulative IPC: 0.21426 (Simulation time: 0 hr 19 min 47 sec) 
Heartbeat CPU  2 instructions:   97000003 cycles:  187256369 heartbeat IPC: 0.17183 cumulative IPC: 0.19061 (Simulation time: 0 hr 19 min 56 sec) 
Heartbeat CPU  3 instructions:   95000002 cycles:  187737528 heartbeat IPC: 0.21284 cumulative IPC: 0.22898 (Simulation time: 0 hr 19 min 57 sec) 
Heartbeat CPU  1 instructions:   91000001 cycles:  188928205 heartbeat IPC: 0.21722 cumulative IPC: 0.22910 (Simulation time: 0 hr 20 min 1 sec) 
Heartbeat CPU  0 instructions:   85000002 cycles:  189361405 heartbeat IPC: 0.20558 cumulative IPC: 0.21400 (Simulation time: 0 hr 20 min 3 sec) 
Heartbeat CPU  3 instructions:   96000000 cycles:  192443214 heartbeat IPC: 0.21251 cumulative IPC: 0.22852 (Simulation time: 0 hr 20 min 13 sec) 
Heartbeat CPU  2 instructions:   98000003 cycles:  193051090 heartbeat IPC: 0.17257 cumulative IPC: 0.18999 (Simulation time: 0 hr 20 min 15 sec) 
Heartbeat CPU  1 instructions:   92000000 cycles:  193556033 heartbeat IPC: 0.21608 cumulative IPC: 0.22874 (Simulation time: 0 hr 20 min 17 sec) 
Heartbeat CPU  0 instructions:   86000003 cycles:  194097823 heartbeat IPC: 0.21113 cumulative IPC: 0.21392 (Simulation time: 0 hr 20 min 19 sec) 
Heartbeat CPU  3 instructions:   97000001 cycles:  197026807 heartbeat IPC: 0.21817 cumulative IPC: 0.22824 (Simulation time: 0 hr 20 min 28 sec) 
Heartbeat CPU  1 instructions:   93000002 cycles:  198110791 heartbeat IPC: 0.21955 cumulative IPC: 0.22849 (Simulation time: 0 hr 20 min 32 sec) 
Heartbeat CPU  2 instructions:   99000000 cycles:  198726673 heartbeat IPC: 0.17619 cumulative IPC: 0.18953 (Simulation time: 0 hr 20 min 34 sec) 
Heartbeat CPU  0 instructions:   87000001 cycles:  198842320 heartbeat IPC: 0.21077 cumulative IPC: 0.21383 (Simulation time: 0 hr 20 min 34 sec) 
Heartbeat CPU  3 instructions:   98000002 cycles:  201648225 heartbeat IPC: 0.21638 cumulative IPC: 0.22793 (Simulation time: 0 hr 20 min 43 sec) 
Heartbeat CPU  1 instructions:   94000002 cycles:  202694708 heartbeat IPC: 0.21815 cumulative IPC: 0.22823 (Simulation time: 0 hr 20 min 47 sec) 
Heartbeat CPU  0 instructions:   88000000 cycles:  203705935 heartbeat IPC: 0.20561 cumulative IPC: 0.21361 (Simulation time: 0 hr 20 min 50 sec) 
*** Reached end of trace for Core: 2 Repeating trace: /data3/STREAMING/traces/streaming_phase4_core2.trace.xz
Heartbeat CPU  2 instructions:  100000000 cycles:  204334466 heartbeat IPC: 0.17832 cumulative IPC: 0.18918 (Simulation time: 0 hr 20 min 52 sec) 
Heartbeat CPU  3 instructions:   99000003 cycles:  206157563 heartbeat IPC: 0.22176 cumulative IPC: 0.22778 (Simulation time: 0 hr 20 min 58 sec) 
Heartbeat CPU  1 instructions:   95000000 cycles:  207293506 heartbeat IPC: 0.21745 cumulative IPC: 0.22795 (Simulation time: 0 hr 21 min 1 sec) 
Heartbeat CPU  0 instructions:   89000000 cycles:  208372824 heartbeat IPC: 0.21428 cumulative IPC: 0.21363 (Simulation time: 0 hr 21 min 5 sec) 
Heartbeat CPU  2 instructions:  101000001 cycles:  209852524 heartbeat IPC: 0.18122 cumulative IPC: 0.18894 (Simulation time: 0 hr 21 min 10 sec) 
*** Reached end of trace for Core: 3 Repeating trace: /data3/STREAMING/traces/streaming_phase4_core3.trace.xz
Heartbeat CPU  3 instructions:  100000000 cycles:  210790851 heartbeat IPC: 0.21583 cumulative IPC: 0.22748 (Simulation time: 0 hr 21 min 13 sec) 
Heartbeat CPU  1 instructions:   96000000 cycles:  211944696 heartbeat IPC: 0.21500 cumulative IPC: 0.22763 (Simulation time: 0 hr 21 min 17 sec) 
Heartbeat CPU  0 instructions:   90000003 cycles:  212995366 heartbeat IPC: 0.21633 cumulative IPC: 0.21369 (Simulation time: 0 hr 21 min 20 sec) 
Heartbeat CPU  3 instructions:  101000001 cycles:  215455239 heartbeat IPC: 0.21439 cumulative IPC: 0.22715 (Simulation time: 0 hr 21 min 28 sec) 
Heartbeat CPU  2 instructions:  102000001 cycles:  215718161 heartbeat IPC: 0.17048 cumulative IPC: 0.18837 (Simulation time: 0 hr 21 min 28 sec) 
Heartbeat CPU  1 instructions:   97000003 cycles:  216436651 heartbeat IPC: 0.22262 cumulative IPC: 0.22751 (Simulation time: 0 hr 21 min 30 sec) 
Heartbeat CPU  0 instructions:   91000000 cycles:  217660609 heartbeat IPC: 0.21435 cumulative IPC: 0.21371 (Simulation time: 0 hr 21 min 34 sec) 
Heartbeat CPU  2 instructions:  103000003 cycles:  219427630 heartbeat IPC: 0.26958 cumulative IPC: 0.18993 (Simulation time: 0 hr 21 min 41 sec) 
Heartbeat CPU  3 instructions:  102000000 cycles:  220068397 heartbeat IPC: 0.21677 cumulative IPC: 0.22691 (Simulation time: 0 hr 21 min 44 sec) 
Heartbeat CPU  1 instructions:   98000003 cycles:  220968835 heartbeat IPC: 0.22064 cumulative IPC: 0.22735 (Simulation time: 0 hr 21 min 47 sec) 
Heartbeat CPU  2 instructions:  104000000 cycles:  221392207 heartbeat IPC: 0.50901 cumulative IPC: 0.19313 (Simulation time: 0 hr 21 min 49 sec) 
Heartbeat CPU  0 instructions:   92000000 cycles:  222324066 heartbeat IPC: 0.21443 cumulative IPC: 0.21373 (Simulation time: 0 hr 21 min 53 sec) 
Heartbeat CPU  2 instructions:  105000002 cycles:  223449891 heartbeat IPC: 0.48598 cumulative IPC: 0.19618 (Simulation time: 0 hr 21 min 57 sec) 
Heartbeat CPU  3 instructions:  103000000 cycles:  224721081 heartbeat IPC: 0.21493 cumulative IPC: 0.22663 (Simulation time: 0 hr 22 min 2 sec) 
Heartbeat CPU  2 instructions:  106000002 cycles:  225397976 heartbeat IPC: 0.51332 cumulative IPC: 0.19928 (Simulation time: 0 hr 22 min 5 sec) 
Heartbeat CPU  1 instructions:   99000000 cycles:  225568674 heartbeat IPC: 0.21740 cumulative IPC: 0.22712 (Simulation time: 0 hr 22 min 6 sec) 
Heartbeat CPU  0 instructions:   93000000 cycles:  226997970 heartbeat IPC: 0.21395 cumulative IPC: 0.21373 (Simulation time: 0 hr 22 min 11 sec) 
Heartbeat CPU  2 instructions:  107000003 cycles:  227270681 heartbeat IPC: 0.53399 cumulative IPC: 0.20239 (Simulation time: 0 hr 22 min 12 sec) 
Heartbeat CPU  2 instructions:  108000000 cycles:  229134016 heartbeat IPC: 0.53667 cumulative IPC: 0.20545 (Simulation time: 0 hr 22 min 20 sec) 
Heartbeat CPU  3 instructions:  104000000 cycles:  229385463 heartbeat IPC: 0.21439 cumulative IPC: 0.22635 (Simulation time: 0 hr 22 min 21 sec) 
*** Reached end of trace for Core: 1 Repeating trace: /data3/STREAMING/traces/streaming_phase4_core1.trace.xz
Heartbeat CPU  1 instructions:  100000000 cycles:  230297122 heartbeat IPC: 0.21149 cumulative IPC: 0.22676 (Simulation time: 0 hr 22 min 24 sec) 
Heartbeat CPU  2 instructions:  109000001 cycles:  230946105 heartbeat IPC: 0.55185 cumulative IPC: 0.20851 (Simulation time: 0 hr 22 min 27 sec) 
Heartbeat CPU  0 instructions:   94000003 cycles:  231672842 heartbeat IPC: 0.21391 cumulative IPC: 0.21374 (Simulation time: 0 hr 22 min 30 sec) 
Heartbeat CPU  2 instructions:  110000002 cycles:  232753962 heartbeat IPC: 0.55314 cumulative IPC: 0.21152 (Simulation time: 0 hr 22 min 34 sec) 
Heartbeat CPU  3 instructions:  105000003 cycles:  234107346 heartbeat IPC: 0.21178 cumulative IPC: 0.22602 (Simulation time: 0 hr 22 min 39 sec) 
Heartbeat CPU  2 instructions:  111000001 cycles:  234681417 heartbeat IPC: 0.51882 cumulative IPC: 0.21436 (Simulation time: 0 hr 22 min 41 sec) 
Heartbeat CPU  1 instructions:  101000003 cycles:  234973740 heartbeat IPC: 0.21383 cumulative IPC: 0.22647 (Simulation time: 0 hr 22 min 43 sec) 
Heartbeat CPU  0 instructions:   95000000 cycles:  236277120 heartbeat IPC: 0.21719 cumulative IPC: 0.21381 (Simulation time: 0 hr 22 min 48 sec) 
Heartbeat CPU  2 instructions:  112000000 cycles:  236578331 heartbeat IPC: 0.52717 cumulative IPC: 0.21717 (Simulation time: 0 hr 22 min 49 sec) 
Heartbeat CPU  3 instructions:  106000002 cycles:  238819207 heartbeat IPC: 0.21223 cumulative IPC: 0.22571 (Simulation time: 0 hr 22 min 57 sec) 
Heartbeat CPU  2 instructions:  113000003 cycles:  239237324 heartbeat IPC: 0.37608 cumulative IPC: 0.21915 (Simulation time: 0 hr 22 min 58 sec) 
Heartbeat CPU  1 instructions:  102000001 cycles:  239607952 heartbeat IPC: 0.21579 cumulative IPC: 0.22624 (Simulation time: 0 hr 22 min 59 sec) 
Heartbeat CPU  0 instructions:   96000000 cycles:  240837121 heartbeat IPC: 0.21930 cumulative IPC: 0.21393 (Simulation time: 0 hr 23 min 3 sec) 
Heartbeat CPU  3 instructions:  107000001 cycles:  243448802 heartbeat IPC: 0.21600 cumulative IPC: 0.22551 (Simulation time: 0 hr 23 min 12 sec) 
Heartbeat CPU  1 instructions:  103000000 cycles:  244249082 heartbeat IPC: 0.21546 cumulative IPC: 0.22601 (Simulation time: 0 hr 23 min 14 sec) 
Heartbeat CPU  2 instructions:  114000001 cycles:  245247606 heartbeat IPC: 0.16638 cumulative IPC: 0.21771 (Simulation time: 0 hr 23 min 17 sec) 
Heartbeat CPU  0 instructions:   97000001 cycles:  245445234 heartbeat IPC: 0.21701 cumulative IPC: 0.21399 (Simulation time: 0 hr 23 min 18 sec) 
Heartbeat CPU  3 instructions:  108000000 cycles:  248168275 heartbeat IPC: 0.21189 cumulative IPC: 0.22522 (Simulation time: 0 hr 23 min 26 sec) 
Heartbeat CPU  1 instructions:  104000000 cycles:  248882861 heartbeat IPC: 0.21581 cumulative IPC: 0.22580 (Simulation time: 0 hr 23 min 29 sec) 
Heartbeat CPU  0 instructions:   98000003 cycles:  250015626 heartbeat IPC: 0.21880 cumulative IPC: 0.21409 (Simulation time: 0 hr 23 min 32 sec) 
Heartbeat CPU  2 instructions:  115000001 cycles:  251149202 heartbeat IPC: 0.16945 cumulative IPC: 0.21644 (Simulation time: 0 hr 23 min 36 sec) 
Heartbeat CPU  3 instructions:  109000002 cycles:  252766629 heartbeat IPC: 0.21747 cumulative IPC: 0.22506 (Simulation time: 0 hr 23 min 41 sec) 
Heartbeat CPU  1 instructions:  105000003 cycles:  253564567 heartbeat IPC: 0.21360 cumulative IPC: 0.22555 (Simulation time: 0 hr 23 min 43 sec) 
Heartbeat CPU  0 instructions:   99000003 cycles:  254618727 heartbeat IPC: 0.21724 cumulative IPC: 0.21415 (Simulation time: 0 hr 23 min 46 sec) 
Heartbeat CPU  2 instructions:  116000000 cycles:  255544561 heartbeat IPC: 0.22751 cumulative IPC: 0.21666 (Simulation time: 0 hr 23 min 50 sec) 
Heartbeat CPU  2 instructions:  117000000 cycles:  257382443 heartbeat IPC: 0.54410 cumulative IPC: 0.21926 (Simulation time: 0 hr 23 min 57 sec) 
Heartbeat CPU  3 instructions:  110000003 cycles:  257421350 heartbeat IPC: 0.21484 cumulative IPC: 0.22485 (Simulation time: 0 hr 23 min 57 sec) 
Heartbeat CPU  1 instructions:  106000001 cycles:  258134133 heartbeat IPC: 0.21884 cumulative IPC: 0.22542 (Simulation time: 0 hr 23 min 59 sec) 
*** Reached end of trace for Core: 0 Repeating trace: /data3/STREAMING/traces/streaming_phase4_core0.trace.xz
Heartbeat CPU  2 instructions:  118000002 cycles:  259206059 heartbeat IPC: 0.54836 cumulative IPC: 0.22183 (Simulation time: 0 hr 24 min 3 sec) 
Heartbeat CPU  0 instructions:  100000000 cycles:  259259679 heartbeat IPC: 0.21547 cumulative IPC: 0.21418 (Simulation time: 0 hr 24 min 4 sec) 
Heartbeat CPU  2 instructions:  119000003 cycles:  261040131 heartbeat IPC: 0.54524 cumulative IPC: 0.22435 (Simulation time: 0 hr 24 min 10 sec) 
Heartbeat CPU  3 instructions:  111000002 cycles:  262123905 heartbeat IPC: 0.21265 cumulative IPC: 0.22461 (Simulation time: 0 hr 24 min 14 sec) 
Heartbeat CPU  2 instructions:  120000000 cycles:  262907318 heartbeat IPC: 0.53556 cumulative IPC: 0.22680 (Simulation time: 0 hr 24 min 17 sec) 
Heartbeat CPU  1 instructions:  107000000 cycles:  262920869 heartbeat IPC: 0.20891 cumulative IPC: 0.22508 (Simulation time: 0 hr 24 min 17 sec) 
Heartbeat CPU  0 instructions:  101000000 cycles:  263935149 heartbeat IPC: 0.21388 cumulative IPC: 0.21417 (Simulation time: 0 hr 24 min 20 sec) 
Heartbeat CPU  2 instructions:  121000001 cycles:  264722894 heartbeat IPC: 0.55079 cumulative IPC: 0.22926 (Simulation time: 0 hr 24 min 22 sec) 
Heartbeat CPU  2 instructions:  122000001 cycles:  266540458 heartbeat IPC: 0.55019 cumulative IPC: 0.23168 (Simulation time: 0 hr 24 min 27 sec) 
Heartbeat CPU  3 instructions:  112000000 cycles:  266791729 heartbeat IPC: 0.21423 cumulative IPC: 0.22441 (Simulation time: 0 hr 24 min 28 sec) 
Heartbeat CPU  1 instructions:  108000000 cycles:  267612036 heartbeat IPC: 0.21317 cumulative IPC: 0.22485 (Simulation time: 0 hr 24 min 30 sec) 
Heartbeat CPU  2 instructions:  123000001 cycles:  268347651 heartbeat IPC: 0.55334 cumulative IPC: 0.23408 (Simulation time: 0 hr 24 min 32 sec) 
Heartbeat CPU  0 instructions:  102000000 cycles:  268597042 heartbeat IPC: 0.21451 cumulative IPC: 0.21418 (Simulation time: 0 hr 24 min 33 sec) 
Heartbeat CPU  2 instructions:  124000000 cycles:  270145267 heartbeat IPC: 0.55629 cumulative IPC: 0.23645 (Simulation time: 0 hr 24 min 38 sec) 
Heartbeat CPU  3 instructions:  113000000 cycles:  271506858 heartbeat IPC: 0.21208 cumulative IPC: 0.22417 (Simulation time: 0 hr 24 min 41 sec) 
Heartbeat CPU  1 instructions:  109000000 cycles:  272350327 heartbeat IPC: 0.21105 cumulative IPC: 0.22459 (Simulation time: 0 hr 24 min 43 sec) 
Heartbeat CPU  0 instructions:  103000000 cycles:  273369470 heartbeat IPC: 0.20954 cumulative IPC: 0.21409 (Simulation time: 0 hr 24 min 45 sec) 
Heartbeat CPU  2 instructions:  125000003 cycles:  275218513 heartbeat IPC: 0.19711 cumulative IPC: 0.23565 (Simulation time: 0 hr 24 min 50 sec) 
Heartbeat CPU  3 instructions:  114000000 cycles:  276251823 heartbeat IPC: 0.21075 cumulative IPC: 0.22392 (Simulation time: 0 hr 24 min 52 sec) 
Heartbeat CPU  1 instructions:  110000003 cycles:  276936595 heartbeat IPC: 0.21804 cumulative IPC: 0.22447 (Simulation time: 0 hr 24 min 54 sec) 
Heartbeat CPU  0 instructions:  104000000 cycles:  277960871 heartbeat IPC: 0.21780 cumulative IPC: 0.21416 (Simulation time: 0 hr 24 min 56 sec) 
Heartbeat CPU  3 instructions:  115000000 cycles:  280950551 heartbeat IPC: 0.21282 cumulative IPC: 0.22372 (Simulation time: 0 hr 25 min 3 sec) 
Heartbeat CPU  2 instructions:  126000000 cycles:  281122517 heartbeat IPC: 0.16938 cumulative IPC: 0.23412 (Simulation time: 0 hr 25 min 4 sec) 
Heartbeat CPU  1 instructions:  111000003 cycles:  281543595 heartbeat IPC: 0.21706 cumulative IPC: 0.22433 (Simulation time: 0 hr 25 min 5 sec) 
Heartbeat CPU  0 instructions:  105000000 cycles:  282614983 heartbeat IPC: 0.21486 cumulative IPC: 0.21417 (Simulation time: 0 hr 25 min 7 sec) 
Heartbeat CPU  3 instructions:  116000000 cycles:  285800339 heartbeat IPC: 0.20619 cumulative IPC: 0.22339 (Simulation time: 0 hr 25 min 15 sec) 
Heartbeat CPU  2 instructions:  127000000 cycles:  285861392 heartbeat IPC: 0.21102 cumulative IPC: 0.23370 (Simulation time: 0 hr 25 min 15 sec) 
Heartbeat CPU  1 instructions:  112000000 cycles:  286072187 heartbeat IPC: 0.22082 cumulative IPC: 0.22427 (Simulation time: 0 hr 25 min 15 sec) 
Heartbeat CPU  0 instructions:  106000003 cycles:  287245412 heartbeat IPC: 0.21596 cumulative IPC: 0.21420 (Simulation time: 0 hr 25 min 18 sec) 
Heartbeat CPU  3 instructions:  117000001 cycles:  290317965 heartbeat IPC: 0.22136 cumulative IPC: 0.22335 (Simulation time: 0 hr 25 min 25 sec) 
Heartbeat CPU  1 instructions:  113000000 cycles:  290623251 heartbeat IPC: 0.21973 cumulative IPC: 0.22419 (Simulation time: 0 hr 25 min 26 sec) 
Heartbeat CPU  2 instructions:  128000000 cycles:  291576697 heartbeat IPC: 0.17497 cumulative IPC: 0.23244 (Simulation time: 0 hr 25 min 28 sec) 
Heartbeat CPU  0 instructions:  107000001 cycles:  291841456 heartbeat IPC: 0.21758 cumulative IPC: 0.21426 (Simulation time: 0 hr 25 min 29 sec) 
Heartbeat CPU  3 instructions:  118000000 cycles:  294905244 heartbeat IPC: 0.21799 cumulative IPC: 0.22326 (Simulation time: 0 hr 25 min 36 sec) 
Heartbeat CPU  1 instructions:  114000000 cycles:  295389770 heartbeat IPC: 0.20980 cumulative IPC: 0.22394 (Simulation time: 0 hr 25 min 37 sec) 
Heartbeat CPU  0 instructions:  108000000 cycles:  296454423 heartbeat IPC: 0.21678 cumulative IPC: 0.21430 (Simulation time: 0 hr 25 min 40 sec) 
Heartbeat CPU  2 instructions:  129000001 cycles:  297388403 heartbeat IPC: 0.17207 cumulative IPC: 0.23114 (Simulation time: 0 hr 25 min 42 sec) 
Heartbeat CPU  3 instructions:  119000002 cycles:  299492756 heartbeat IPC: 0.21798 cumulative IPC: 0.22317 (Simulation time: 0 hr 25 min 47 sec) 
Heartbeat CPU  1 instructions:  115000000 cycles:  300147277 heartbeat IPC: 0.21019 cumulative IPC: 0.22370 (Simulation time: 0 hr 25 min 49 sec) 
Heartbeat CPU  0 instructions:  109000003 cycles:  301059235 heartbeat IPC: 0.21716 cumulative IPC: 0.21435 (Simulation time: 0 hr 25 min 51 sec) 
Heartbeat CPU  2 instructions:  130000001 cycles:  301686014 heartbeat IPC: 0.23269 cumulative IPC: 0.23117 (Simulation time: 0 hr 25 min 53 sec) 
Heartbeat CPU  2 instructions:  131000001 cycles:  303455174 heartbeat IPC: 0.56524 cumulative IPC: 0.23330 (Simulation time: 0 hr 25 min 58 sec) 
Heartbeat CPU  3 instructions:  120000000 cycles:  304257162 heartbeat IPC: 0.20989 cumulative IPC: 0.22295 (Simulation time: 0 hr 26 min 0 sec) 
Heartbeat CPU  1 instructions:  116000000 cycles:  304838449 heartbeat IPC: 0.21317 cumulative IPC: 0.22352 (Simulation time: 0 hr 26 min 2 sec) 
Heartbeat CPU  2 instructions:  132000000 cycles:  305327639 heartbeat IPC: 0.53405 cumulative IPC: 0.23531 (Simulation time: 0 hr 26 min 3 sec) 
Heartbeat CPU  0 instructions:  110000000 cycles:  305631117 heartbeat IPC: 0.21873 cumulative IPC: 0.21442 (Simulation time: 0 hr 26 min 4 sec) 
Heartbeat CPU  2 instructions:  133000003 cycles:  308649742 heartbeat IPC: 0.30102 cumulative IPC: 0.23608 (Simulation time: 0 hr 26 min 11 sec) 
Heartbeat CPU  3 instructions:  121000000 cycles:  308991312 heartbeat IPC: 0.21123 cumulative IPC: 0.22275 (Simulation time: 0 hr 26 min 12 sec) 
Heartbeat CPU  1 instructions:  117000001 cycles:  309561147 heartbeat IPC: 0.21174 cumulative IPC: 0.22333 (Simulation time: 0 hr 26 min 14 sec) 
Heartbeat CPU  0 instructions:  111000001 cycles:  310369054 heartbeat IPC: 0.21106 cumulative IPC: 0.21437 (Simulation time: 0 hr 26 min 15 sec) 
Heartbeat CPU  3 instructions:  122000000 cycles:  313717048 heartbeat IPC: 0.21161 cumulative IPC: 0.22257 (Simulation time: 0 hr 26 min 23 sec) 
Heartbeat CPU  1 instructions:  118000003 cycles:  314270556 heartbeat IPC: 0.21234 cumulative IPC: 0.22315 (Simulation time: 0 hr 26 min 25 sec) 
Heartbeat CPU  2 instructions:  134000002 cycles:  314621398 heartbeat IPC: 0.16746 cumulative IPC: 0.23466 (Simulation time: 0 hr 26 min 26 sec) 
Heartbeat CPU  0 instructions:  112000000 cycles:  315088746 heartbeat IPC: 0.21188 cumulative IPC: 0.21433 (Simulation time: 0 hr 26 min 27 sec) 
Heartbeat CPU  3 instructions:  123000001 cycles:  318402987 heartbeat IPC: 0.21340 cumulative IPC: 0.22242 (Simulation time: 0 hr 26 min 35 sec) 
Heartbeat CPU  1 instructions:  119000001 cycles:  318921271 heartbeat IPC: 0.21502 cumulative IPC: 0.22302 (Simulation time: 0 hr 26 min 36 sec) 
Heartbeat CPU  0 instructions:  113000001 cycles:  319827006 heartbeat IPC: 0.21105 cumulative IPC: 0.21427 (Simulation time: 0 hr 26 min 38 sec) 
Heartbeat CPU  2 instructions:  135000003 cycles:  320567563 heartbeat IPC: 0.16818 cumulative IPC: 0.23332 (Simulation time: 0 hr 26 min 40 sec) 
Heartbeat CPU  3 instructions:  124000000 cycles:  322854625 heartbeat IPC: 0.22464 cumulative IPC: 0.22245 (Simulation time: 0 hr 26 min 45 sec) 
Heartbeat CPU  1 instructions:  120000000 cycles:  323594964 heartbeat IPC: 0.21396 cumulative IPC: 0.22288 (Simulation time: 0 hr 26 min 47 sec) 
Heartbeat CPU  0 instructions:  114000001 cycles:  324533195 heartbeat IPC: 0.21249 cumulative IPC: 0.21425 (Simulation time: 0 hr 26 min 49 sec) 
Heartbeat CPU  2 instructions:  136000000 cycles:  325292486 heartbeat IPC: 0.21164 cumulative IPC: 0.23298 (Simulation time: 0 hr 26 min 51 sec) 
Heartbeat CPU  2 instructions:  137000001 cycles:  326738455 heartbeat IPC: 0.69158 cumulative IPC: 0.23518 (Simulation time: 0 hr 26 min 56 sec) 
Heartbeat CPU  3 instructions:  125000002 cycles:  327657383 heartbeat IPC: 0.20821 cumulative IPC: 0.22223 (Simulation time: 0 hr 27 min 1 sec) 
Heartbeat CPU  2 instructions:  138000003 cycles:  327841158 heartbeat IPC: 0.90686 cumulative IPC: 0.23764 (Simulation time: 0 hr 27 min 2 sec) 
Heartbeat CPU  1 instructions:  121000000 cycles:  328161962 heartbeat IPC: 0.21896 cumulative IPC: 0.22282 (Simulation time: 0 hr 27 min 3 sec) 
Heartbeat CPU  2 instructions:  139000002 cycles:  328896097 heartbeat IPC: 0.94792 cumulative IPC: 0.24011 (Simulation time: 0 hr 27 min 6 sec) 
Heartbeat CPU  0 instructions:  115000002 cycles:  329190279 heartbeat IPC: 0.21473 cumulative IPC: 0.21425 (Simulation time: 0 hr 27 min 8 sec) 
Heartbeat CPU  3 instructions:  126000003 cycles:  332178191 heartbeat IPC: 0.22120 cumulative IPC: 0.22221 (Simulation time: 0 hr 27 min 17 sec) 
Heartbeat CPU  2 instructions:  140000000 cycles:  332607808 heartbeat IPC: 0.26942 cumulative IPC: 0.24046 (Simulation time: 0 hr 27 min 19 sec) 
Heartbeat CPU  1 instructions:  122000002 cycles:  332771718 heartbeat IPC: 0.21693 cumulative IPC: 0.22273 (Simulation time: 0 hr 27 min 20 sec) 
Heartbeat CPU  0 instructions:  116000000 cycles:  333886037 heartbeat IPC: 0.21296 cumulative IPC: 0.21423 (Simulation time: 0 hr 27 min 24 sec) 
Heartbeat CPU  2 instructions:  141000002 cycles:  334543853 heartbeat IPC: 0.51652 cumulative IPC: 0.24219 (Simulation time: 0 hr 27 min 26 sec) 
Heartbeat CPU  3 instructions:  127000002 cycles:  336669472 heartbeat IPC: 0.22265 cumulative IPC: 0.22222 (Simulation time: 0 hr 27 min 34 sec) 
[...]
Core_0_L2C_prefetch_useless 2805681
Core_0_L2C_prefetch_late 178628
Core_0_L2C_average_miss_latency 109.18304

Core_0_L2C_rq_access 9433417
Core_0_L2C_rq_forward 0
Core_0_L2C_rq_merged 0
Core_0_L2C_rq_to_cache 9432768
Core_0_L2C_rq_full 0

Core_0_L2C_wq_access 1220646
Core_0_L2C_wq_forward 668
Core_0_L2C_wq_merged 0
Core_0_L2C_wq_to_cache 1220646
Core_0_L2C_wq_full 0

Core_0_L2C_pq_access 16359587
Core_0_L2C_pq_forward 0
Core_0_L2C_pq_merged 7884
Core_0_L2C_pq_to_cache 16351684
Core_0_L2C_pq_full 0

Core_0_L2C_acc_epochs 174437
Core_0_L2C_acc_level_0 32774
Core_0_L2C_acc_level_1 50039
Core_0_L2C_acc_level_2 39620
Core_0_L2C_acc_level_3 21614
Core_0_L2C_acc_level_4 11791
Core_0_L2C_acc_level_5 6666
Core_0_L2C_acc_level_6 3037
Core_0_L2C_acc_level_7 1779
Core_0_L2C_acc_level_8 1619
Core_0_L2C_acc_level_9 5498

Core_0_LLC_total_access 4957107
Core_0_LLC_total_hit 4043202
Core_0_LLC_total_miss 913905
Core_0_LLC_loads 931633
Core_0_LLC_load_hit 835332
Core_0_LLC_load_miss 96301
Core_0_LLC_RFOs 451016
Core_0_LLC_RFO_hit 276692
Core_0_LLC_RFO_miss 174324
Core_0_LLC_prefetches 2927112
Core_0_LLC_prefetch_hit 2312965
Core_0_LLC_prefetch_miss 614147
Core_0_LLC_writebacks 647346
Core_0_LLC_writeback_hit 618213
Core_0_LLC_writeback_miss 29133
Core_0_LLC_prefetch_requested 0
Core_0_LLC_prefetch_dropped 0
Core_0_LLC_prefetch_issued 0
Core_0_LLC_prefetch_filled 4362182
Core_0_LLC_prefetch_useful 108800
Core_0_LLC_prefetch_useless 4173701
Core_0_LLC_prefetch_late 0
Core_0_LLC_average_miss_latency 782.99008

Core_0_LLC_rq_access 5340807
Core_0_LLC_rq_forward 0
Core_0_LLC_rq_merged 0
Core_0_LLC_rq_to_cache 5340175
Core_0_LLC_rq_full 0

Core_0_LLC_wq_access 2517020
Core_0_LLC_wq_forward 726
Core_0_LLC_wq_merged 0
Core_0_LLC_wq_to_cache 2517020
Core_0_LLC_wq_full 0

Core_0_LLC_pq_access 17259848
Core_0_LLC_pq_forward 0
Core_0_LLC_pq_merged 0
Core_0_LLC_pq_to_cache 17259745
Core_0_LLC_pq_full 0

Core_0_LLC_acc_epochs 707566
Core_0_LLC_acc_level_0 652907
Core_0_LLC_acc_level_1 27515
Core_0_LLC_acc_level_2 13421
Core_0_LLC_acc_level_3 3075
Core_0_LLC_acc_level_4 601
Core_0_LLC_acc_level_5 7121
Core_0_LLC_acc_level_6 537
Core_0_LLC_acc_level_7 579
Core_0_LLC_acc_level_8 126
Core_0_LLC_acc_level_9 1684

Core_0_major_page_fault 0
Core_0_minor_page_fault 16978

Core_1_instructions 150000003
Core_1_cycles 649212618
Core_1_IPC 0.23105

Core_1_branch_prediction_accuracy 97.33306
Core_1_branch_MPKI 4.78436
Core_1_average_ROB_occupancy_at_mispredict 84.04664

Core_1_L1D_total_access 23325734
Core_1_L1D_total_hit 20372188
Core_1_L1D_total_miss 2953546
Core_1_L1D_loads 13733090
Core_1_L1D_load_hit 11587078
Core_1_L1D_load_miss 2146012
Core_1_L1D_RFOs 9592644
Core_1_L1D_RFO_hit 8785110
Core_1_L1D_RFO_miss 807534
Core_1_L1D_prefetches 0
Core_1_L1D_prefetch_hit 0
Core_1_L1D_prefetch_miss 0
Core_1_L1D_writebacks 0
Core_1_L1D_writeback_hit 0
Core_1_L1D_writeback_miss 0
Core_1_L1D_prefetch_requested 0
Core_1_L1D_prefetch_dropped 0
Core_1_L1D_prefetch_issued 0
Core_1_L1D_prefetch_filled 0
Core_1_L1D_prefetch_useful 0
Core_1_L1D_prefetch_useless 0
Core_1_L1D_prefetch_late 0
Core_1_L1D_average_miss_latency 95.08774

Core_1_L1D_rq_access 28168367
Core_1_L1D_rq_forward 0
Core_1_L1D_rq_merged 12916743
Core_1_L1D_rq_to_cache 15248759
Core_1_L1D_rq_full 0

Core_1_L1D_wq_access 13586161
Core_1_L1D_wq_forward 2865
Core_1_L1D_wq_merged 39883
Core_1_L1D_wq_to_cache 13546278
Core_1_L1D_wq_full 0

Core_1_L1D_pq_access 0
Core_1_L1D_pq_forward 0
Core_1_L1D_pq_merged 0
Core_1_L1D_pq_to_cache 0
Core_1_L1D_pq_full 0

Core_1_L1D_acc_epochs 176134
Core_1_L1D_acc_level_0 176134
Core_1_L1D_acc_level_1 0
Core_1_L1D_acc_level_2 0
Core_1_L1D_acc_level_3 0
Core_1_L1D_acc_level_4 0
Core_1_L1D_acc_level_5 0
Core_1_L1D_acc_level_6 0
Core_1_L1D_acc_level_7 0
Core_1_L1D_acc_level_8 0
Core_1_L1D_acc_level_9 0

Core_1_L1I_total_access 32281652
Core_1_L1I_total_hit 26485229
Core_1_L1I_total_miss 5796423
Core_1_L1I_loads 32281652
Core_1_L1I_load_hit 26485229
Core_1_L1I_load_miss 5796423
Core_1_L1I_RFOs 0
Core_1_L1I_RFO_hit 0
Core_1_L1I_RFO_miss 0
Core_1_L1I_prefetches 0
Core_1_L1I_prefetch_hit 0
Core_1_L1I_prefetch_miss 0
Core_1_L1I_writebacks 0
Core_1_L1I_writeback_hit 0
Core_1_L1I_writeback_miss 0
Core_1_L1I_prefetch_requested 0
Core_1_L1I_prefetch_dropped 0
Core_1_L1I_prefetch_issued 0
Core_1_L1I_prefetch_filled 0
Core_1_L1I_prefetch_useful 0
Core_1_L1I_prefetch_useless 0
Core_1_L1I_prefetch_late 0
Core_1_L1I_average_miss_latency 95.44010

Core_1_L1I_rq_access 160634744
Core_1_L1I_rq_forward 0
Core_1_L1I_rq_merged 122349350
Core_1_L1I_rq_to_cache 38285394
Core_1_L1I_rq_full 0

Core_1_L1I_wq_access 0
Core_1_L1I_wq_forward 0
Core_1_L1I_wq_merged 0
Core_1_L1I_wq_to_cache 0
Core_1_L1I_wq_full 0

Core_1_L1I_pq_access 0
Core_1_L1I_pq_forward 0
Core_1_L1I_pq_merged 0
Core_1_L1I_pq_to_cache 0
Core_1_L1I_pq_full 0

Core_1_L1I_acc_epochs 176134
Core_1_L1I_acc_level_0 176134
Core_1_L1I_acc_level_1 0
Core_1_L1I_acc_level_2 0
Core_1_L1I_acc_level_3 0
Core_1_L1I_acc_level_4 0
Core_1_L1I_acc_level_5 0
Core_1_L1I_acc_level_6 0
Core_1_L1I_acc_level_7 0
Core_1_L1I_acc_level_8 0
Core_1_L1I_acc_level_9 0

Core_1_L2C_total_access 20982537
Core_1_L2C_total_hit 17348650
Core_1_L2C_total_miss 3633887
Core_1_L2C_loads 7942240
Core_1_L2C_load_hit 7108952
Core_1_L2C_load_miss 833288
Core_1_L2C_RFOs 807093
Core_1_L2C_RFO_hit 407644
Core_1_L2C_RFO_miss 399449
Core_1_L2C_prefetches 11118922
Core_1_L2C_prefetch_hit 8790114
Core_1_L2C_prefetch_miss 2328808
Core_1_L2C_writebacks 1114282
Core_1_L2C_writeback_hit 1041940
Core_1_L2C_writeback_miss 72342
Core_1_L2C_prefetch_requested 16169262
Core_1_L2C_prefetch_dropped 8667
Core_1_L2C_prefetch_issued 16160595
Core_1_L2C_prefetch_filled 3276114
Core_1_L2C_prefetch_useful 887221
Core_1_L2C_prefetch_useless 2386963
Core_1_L2C_prefetch_late 165362
Core_1_L2C_average_miss_latency 120.03853

Core_1_L2C_rq_access 9388332
Core_1_L2C_rq_forward 0
Core_1_L2C_rq_merged 0
Core_1_L2C_rq_to_cache 9387656
Core_1_L2C_rq_full 0

Core_1_L2C_wq_access 1187607
Core_1_L2C_wq_forward 700
Core_1_L2C_wq_merged 0
Core_1_L2C_wq_to_cache 1187607
Core_1_L2C_wq_full 0

Core_1_L2C_pq_access 16160595
Core_1_L2C_pq_forward 0
Core_1_L2C_pq_merged 20476
Core_1_L2C_pq_to_cache 16140095
Core_1_L2C_pq_full 0

Core_1_L2C_acc_epochs 176134
Core_1_L2C_acc_level_0 44704
Core_1_L2C_acc_level_1 46034
Core_1_L2C_acc_level_2 32861
Core_1_L2C_acc_level_3 17204
Core_1_L2C_acc_level_4 10090
Core_1_L2C_acc_level_5 6142
Core_1_L2C_acc_level_6 3010
Core_1_L2C_acc_level_7 1812
Core_1_L2C_acc_level_8 1966
Core_1_L2C_acc_level_9 12311

Core_1_LLC_total_access 4133151
Core_1_LLC_total_hit 3193741
Core_1_LLC_total_miss 939410
Core_1_LLC_loads 677024
Core_1_LLC_load_hit 582212
Core_1_LLC_load_miss 94812
Core_1_LLC_RFOs 399130
Core_1_LLC_RFO_hit 238576
Core_1_LLC_RFO_miss 160554
Core_1_LLC_prefetches 2485268
Core_1_LLC_prefetch_hit 1826669
Core_1_LLC_prefetch_miss 658599
Core_1_LLC_writebacks 571729
Core_1_LLC_writeback_hit 546284
Core_1_LLC_writeback_miss 25445
Core_1_LLC_prefetch_requested 0
Core_1_LLC_prefetch_dropped 0
Core_1_LLC_prefetch_issued 0
Core_1_LLC_prefetch_filled 4362182
Core_1_LLC_prefetch_useful 108800
Core_1_LLC_prefetch_useless 4173701
Core_1_LLC_prefetch_late 0
Core_1_LLC_average_miss_latency 761.73188

Core_1_LLC_rq_access 5340807
Core_1_LLC_rq_forward 0
Core_1_LLC_rq_merged 0
Core_1_LLC_rq_to_cache 5340175
Core_1_LLC_rq_full 0

Core_1_LLC_wq_access 2517020
Core_1_LLC_wq_forward 726
Core_1_LLC_wq_merged 0
Core_1_LLC_wq_to_cache 2517020
Core_1_LLC_wq_full 0

Core_1_LLC_pq_access 17259848
Core_1_LLC_pq_forward 0
Core_1_LLC_pq_merged 0
Core_1_LLC_pq_to_cache 17259745
Core_1_LLC_pq_full 0

Core_1_LLC_acc_epochs 707566
Core_1_LLC_acc_level_0 652907
Core_1_LLC_acc_level_1 27515
Core_1_LLC_acc_level_2 13421
Core_1_LLC_acc_level_3 3075
Core_1_LLC_acc_level_4 601
Core_1_LLC_acc_level_5 7121
Core_1_LLC_acc_level_6 537
Core_1_LLC_acc_level_7 579
Core_1_LLC_acc_level_8 126
Core_1_LLC_acc_level_9 1684

Core_1_major_page_fault 0
Core_1_minor_page_fault 16796

Core_2_instructions 150000000
Core_2_cycles 593844674
Core_2_IPC 0.25259

Core_2_branch_prediction_accuracy 97.29795
Core_2_branch_MPKI 4.09150
Core_2_average_ROB_occupancy_at_mispredict 84.20176

Core_2_L1D_total_access 19259588
Core_2_L1D_total_hit 16804983
Core_2_L1D_total_miss 2454605
Core_2_L1D_loads 12581183
Core_2_L1D_load_hit 10676684
Core_2_L1D_load_miss 1904499
Core_2_L1D_RFOs 6678405
Core_2_L1D_RFO_hit 6128299
Core_2_L1D_RFO_miss 550106
Core_2_L1D_prefetches 0
Core_2_L1D_prefetch_hit 0
Core_2_L1D_prefetch_miss 0
Core_2_L1D_writebacks 0
Core_2_L1D_writeback_hit 0
Core_2_L1D_writeback_miss 0
Core_2_L1D_prefetch_requested 0
Core_2_L1D_prefetch_dropped 0
Core_2_L1D_prefetch_issued 0
Core_2_L1D_prefetch_filled 0
Core_2_L1D_prefetch_useful 0
Core_2_L1D_prefetch_useless 0
Core_2_L1D_prefetch_late 0
Core_2_L1D_average_miss_latency 104.53109

Core_2_L1D_rq_access 30646838
Core_2_L1D_rq_forward 0
Core_2_L1D_rq_merged 13862303
Core_2_L1D_rq_to_cache 16780201
Core_2_L1D_rq_full 0

Core_2_L1D_wq_access 9794687
Core_2_L1D_wq_forward 4334
Core_2_L1D_wq_merged 30924
Core_2_L1D_wq_to_cache 9763763
Core_2_L1D_wq_full 0

Core_2_L1D_pq_access 0
Core_2_L1D_pq_forward 0
Core_2_L1D_pq_merged 0
Core_2_L1D_pq_to_cache 0
Core_2_L1D_pq_full 0

Core_2_L1D_acc_epochs 185491
Core_2_L1D_acc_level_0 185491
Core_2_L1D_acc_level_1 0
Core_2_L1D_acc_level_2 0
Core_2_L1D_acc_level_3 0
Core_2_L1D_acc_level_4 0
Core_2_L1D_acc_level_5 0
Core_2_L1D_acc_level_6 0
Core_2_L1D_acc_level_7 0
Core_2_L1D_acc_level_8 0
Core_2_L1D_acc_level_9 0

Core_2_L1I_total_access 28984581
Core_2_L1I_total_hit 25507470
Core_2_L1I_total_miss 3477111
Core_2_L1I_loads 28984581
Core_2_L1I_load_hit 25507470
Core_2_L1I_load_miss 3477111
Core_2_L1I_RFOs 0
Core_2_L1I_RFO_hit 0
Core_2_L1I_RFO_miss 0
Core_2_L1I_prefetches 0
Core_2_L1I_prefetch_hit 0
Core_2_L1I_prefetch_miss 0
Core_2_L1I_writebacks 0
Core_2_L1I_writeback_hit 0
Core_2_L1I_writeback_miss 0
Core_2_L1I_prefetch_requested 0
Core_2_L1I_prefetch_dropped 0
Core_2_L1I_prefetch_issued 0
Core_2_L1I_prefetch_filled 0
Core_2_L1I_prefetch_useful 0
Core_2_L1I_prefetch_useless 0
Core_2_L1I_prefetch_late 0
Core_2_L1I_average_miss_latency 116.57797

Core_2_L1I_rq_access 191897772
Core_2_L1I_rq_forward 0
Core_2_L1I_rq_merged 153091994
Core_2_L1I_rq_to_cache 38805778
Core_2_L1I_rq_full 0

Core_2_L1I_wq_access 0
Core_2_L1I_wq_forward 0
Core_2_L1I_wq_merged 0
Core_2_L1I_wq_to_cache 0
Core_2_L1I_wq_full 0

Core_2_L1I_pq_access 0
Core_2_L1I_pq_forward 0
Core_2_L1I_pq_merged 0
Core_2_L1I_pq_to_cache 0
Core_2_L1I_pq_full 0

Core_2_L1I_acc_epochs 185491
Core_2_L1I_acc_level_0 185491
Core_2_L1I_acc_level_1 0
Core_2_L1I_acc_level_2 0
Core_2_L1I_acc_level_3 0
Core_2_L1I_acc_level_4 0
Core_2_L1I_acc_level_5 0
Core_2_L1I_acc_level_6 0
Core_2_L1I_acc_level_7 0
Core_2_L1I_acc_level_8 0
Core_2_L1I_acc_level_9 0

Core_2_L2C_total_access 16717924
Core_2_L2C_total_hit 10802432
Core_2_L2C_total_miss 5915492
Core_2_L2C_loads 5381328
Core_2_L2C_load_hit 4105203
Core_2_L2C_load_miss 1276125
Core_2_L2C_RFOs 549855
Core_2_L2C_RFO_hit 266847
Core_2_L2C_RFO_miss 283008
Core_2_L2C_prefetches 9854606
Core_2_L2C_prefetch_hit 5629005
Core_2_L2C_prefetch_miss 4225601
Core_2_L2C_writebacks 932135
Core_2_L2C_writeback_hit 801377
Core_2_L2C_writeback_miss 130758
Core_2_L2C_prefetch_requested 14246636
Core_2_L2C_prefetch_dropped 19760
Core_2_L2C_prefetch_issued 14226876
Core_2_L2C_prefetch_filled 6223828
Core_2_L2C_prefetch_useful 1712061
Core_2_L2C_prefetch_useless 4509603
Core_2_L2C_prefetch_late 123415
Core_2_L2C_average_miss_latency 135.38143

Core_2_L2C_rq_access 6806961
Core_2_L2C_rq_forward 0
Core_2_L2C_rq_merged 0
Core_2_L2C_rq_to_cache 6806369
Core_2_L2C_rq_full 0

Core_2_L2C_wq_access 1061483
Core_2_L2C_wq_forward 609
Core_2_L2C_wq_merged 0
Core_2_L2C_wq_to_cache 1061483
Core_2_L2C_wq_full 0

Core_2_L2C_pq_access 14226876
Core_2_L2C_pq_forward 0
Core_2_L2C_pq_merged 9651
Core_2_L2C_pq_to_cache 14217208
Core_2_L2C_pq_full 0

Core_2_L2C_acc_epochs 185491
Core_2_L2C_acc_level_0 30859
Core_2_L2C_acc_level_1 55587
Core_2_L2C_acc_level_2 22064
Core_2_L2C_acc_level_3 8655
Core_2_L2C_acc_level_4 4996
Core_2_L2C_acc_level_5 5919
Core_2_L2C_acc_level_6 9067
Core_2_L2C_acc_level_7 11376
Core_2_L2C_acc_level_8 14953
Core_2_L2C_acc_level_9 22015

Core_2_LLC_total_access 6359502
Core_2_LLC_total_hit 5389094
Core_2_LLC_total_miss 970408
Core_2_LLC_loads 1167811
Core_2_LLC_load_hit 1099339
Core_2_LLC_load_miss 68472
Core_2_LLC_RFOs 282592
Core_2_LLC_RFO_hit 203572
Core_2_LLC_RFO_miss 79020
Core_2_LLC_prefetches 4334070
Core_2_LLC_prefetch_hit 3519313
Core_2_LLC_prefetch_miss 814757
Core_2_LLC_writebacks 575029
Core_2_LLC_writeback_hit 566870
Core_2_LLC_writeback_miss 8159
Core_2_LLC_prefetch_requested 0
Core_2_LLC_prefetch_dropped 0
Core_2_LLC_prefetch_issued 0
Core_2_LLC_prefetch_filled 4362182
Core_2_LLC_prefetch_useful 108800
Core_2_LLC_prefetch_useless 4173701
Core_2_LLC_prefetch_late 0
Core_2_LLC_average_miss_latency 737.39968

Core_2_LLC_rq_access 5340807
Core_2_LLC_rq_forward 0
Core_2_LLC_rq_merged 0
Core_2_LLC_rq_to_cache 5340175
Core_2_LLC_rq_full 0

Core_2_LLC_wq_access 2517020
Core_2_LLC_wq_forward 726
Core_2_LLC_wq_merged 0
Core_2_LLC_wq_to_cache 2517020
Core_2_LLC_wq_full 0

Core_2_LLC_pq_access 17259848
Core_2_LLC_pq_forward 0
Core_2_LLC_pq_merged 0
Core_2_LLC_pq_to_cache 17259745
Core_2_LLC_pq_full 0

Core_2_LLC_acc_epochs 707566
Core_2_LLC_acc_level_0 652907
Core_2_LLC_acc_level_1 27515
Core_2_LLC_acc_level_2 13421
Core_2_LLC_acc_level_3 3075
Core_2_LLC_acc_level_4 601
Core_2_LLC_acc_level_5 7121
Core_2_LLC_acc_level_6 537
Core_2_LLC_acc_level_7 579
Core_2_LLC_acc_level_8 126
Core_2_LLC_acc_level_9 1684

Core_2_major_page_fault 0
Core_2_minor_page_fault 15403

Core_3_instructions 150000002
Core_3_cycles 612875439
Core_3_IPC 0.24475

Core_3_branch_prediction_accuracy 97.35434
Core_3_branch_MPKI 4.53705
Core_3_average_ROB_occupancy_at_mispredict 82.92516

Core_3_L1D_total_access 22074075
Core_3_L1D_total_hit 19203508
Core_3_L1D_total_miss 2870567
Core_3_L1D_loads 13226659
Core_3_L1D_load_hit 11117171
Core_3_L1D_load_miss 2109488
Core_3_L1D_RFOs 8847416
Core_3_L1D_RFO_hit 8086337
Core_3_L1D_RFO_miss 761079
Core_3_L1D_prefetches 0
Core_3_L1D_prefetch_hit 0
Core_3_L1D_prefetch_miss 0
Core_3_L1D_writebacks 0
Core_3_L1D_writeback_hit 0
Core_3_L1D_writeback_miss 0
Core_3_L1D_prefetch_requested 0
Core_3_L1D_prefetch_dropped 0
Core_3_L1D_prefetch_issued 0
Core_3_L1D_prefetch_filled 0
Core_3_L1D_prefetch_useful 0
Core_3_L1D_prefetch_useless 0
Core_3_L1D_prefetch_late 0
Core_3_L1D_average_miss_latency 99.90658

Core_3_L1D_rq_access 29084119
Core_3_L1D_rq_forward 0
Core_3_L1D_rq_merged 13440204
Core_3_L1D_rq_to_cache 15640812
Core_3_L1D_rq_full 0

Core_3_L1D_wq_access 13363830
Core_3_L1D_wq_forward 3103
Core_3_L1D_wq_merged 39420
Core_3_L1D_wq_to_cache 13324410
Core_3_L1D_wq_full 0

Core_3_L1D_pq_access 0
Core_3_L1D_pq_forward 0
Core_3_L1D_pq_merged 0
Core_3_L1D_pq_to_cache 0
Core_3_L1D_pq_full 0

Core_3_L1D_acc_epochs 180954
Core_3_L1D_acc_level_0 180954
Core_3_L1D_acc_level_1 0
Core_3_L1D_acc_level_2 0
Core_3_L1D_acc_level_3 0
Core_3_L1D_acc_level_4 0
Core_3_L1D_acc_level_5 0
Core_3_L1D_acc_level_6 0
Core_3_L1D_acc_level_7 0
Core_3_L1D_acc_level_8 0
Core_3_L1D_acc_level_9 0

Core_3_L1I_total_access 31727157
Core_3_L1I_total_hit 26286773
Core_3_L1I_total_miss 5440384
Core_3_L1I_loads 31727157
Core_3_L1I_load_hit 26286773
Core_3_L1I_load_miss 5440384
Core_3_L1I_RFOs 0
Core_3_L1I_RFO_hit 0
Core_3_L1I_RFO_miss 0
Core_3_L1I_prefetches 0
Core_3_L1I_prefetch_hit 0
Core_3_L1I_prefetch_miss 0
Core_3_L1I_writebacks 0
Core_3_L1I_writeback_hit 0
Core_3_L1I_writeback_miss 0
Core_3_L1I_prefetch_requested 0
Core_3_L1I_prefetch_dropped 0
Core_3_L1I_prefetch_issued 0
Core_3_L1I_prefetch_filled 0
Core_3_L1I_prefetch_useful 0
Core_3_L1I_prefetch_useless 0
Core_3_L1I_prefetch_late 0
Core_3_L1I_average_miss_latency 100.69327

Core_3_L1I_rq_access 168432955
Core_3_L1I_rq_forward 0
Core_3_L1I_rq_merged 129053775
Core_3_L1I_rq_to_cache 39379180
Core_3_L1I_rq_full 0

Core_3_L1I_wq_access 0
Core_3_L1I_wq_forward 0
Core_3_L1I_wq_merged 0
Core_3_L1I_wq_to_cache 0
Core_3_L1I_wq_full 0

Core_3_L1I_pq_access 0
Core_3_L1I_pq_forward 0
Core_3_L1I_pq_merged 0
Core_3_L1I_pq_to_cache 0
Core_3_L1I_pq_full 0

Core_3_L1I_acc_epochs 180954
Core_3_L1I_acc_level_0 180954
Core_3_L1I_acc_level_1 0
Core_3_L1I_acc_level_2 0
Core_3_L1I_acc_level_3 0
Core_3_L1I_acc_level_4 0
Core_3_L1I_acc_level_5 0
Core_3_L1I_acc_level_6 0
Core_3_L1I_acc_level_7 0
Core_3_L1I_acc_level_8 0
Core_3_L1I_acc_level_9 0

Core_3_L2C_total_access 19894272
Core_3_L2C_total_hit 16275776
Core_3_L2C_total_miss 3618496
Core_3_L2C_loads 7549658
Core_3_L2C_load_hit 6731221
Core_3_L2C_load_miss 818437
Core_3_L2C_RFOs 760640
Core_3_L2C_RFO_hit 381306
Core_3_L2C_RFO_miss 379334
Core_3_L2C_prefetches 10526136
Core_3_L2C_prefetch_hit 8173952
Core_3_L2C_prefetch_miss 2352184
Core_3_L2C_writebacks 1057838
Core_3_L2C_writeback_hit 989297
Core_3_L2C_writeback_miss 68541
Core_3_L2C_prefetch_requested 15987319
Core_3_L2C_prefetch_dropped 8314
Core_3_L2C_prefetch_issued 15979005
Core_3_L2C_prefetch_filled 3448414
Core_3_L2C_prefetch_useful 1004330
Core_3_L2C_prefetch_useless 2442211
Core_3_L2C_prefetch_late 166777
Core_3_L2C_average_miss_latency 127.84347

Core_3_L2C_rq_access 9456854
Core_3_L2C_rq_forward 0
Core_3_L2C_rq_merged 0
Core_3_L2C_rq_to_cache 9456118
Core_3_L2C_rq_full 0

Core_3_L2C_wq_access 1196465
Core_3_L2C_wq_forward 783
Core_3_L2C_wq_merged 0
Core_3_L2C_wq_to_cache 1196465
Core_3_L2C_wq_full 0

Core_3_L2C_pq_access 15979005
Core_3_L2C_pq_forward 0
Core_3_L2C_pq_merged 50442
Core_3_L2C_pq_to_cache 15928516
Core_3_L2C_pq_full 0

Core_3_L2C_acc_epochs 180954
Core_3_L2C_acc_level_0 44919
Core_3_L2C_acc_level_1 46550
Core_3_L2C_acc_level_2 32310
Core_3_L2C_acc_level_3 16799
Core_3_L2C_acc_level_4 9606
Core_3_L2C_acc_level_5 5860
Core_3_L2C_acc_level_6 2784
Core_3_L2C_acc_level_7 1734
Core_3_L2C_acc_level_8 2083
Core_3_L2C_acc_level_9 18309

Core_3_LLC_total_access 4090854
Core_3_LLC_total_hit 3099188
Core_3_LLC_total_miss 991666
Core_3_LLC_loads 670370
Core_3_LLC_load_hit 571109
Core_3_LLC_load_miss 99261
Core_3_LLC_RFOs 379059
Core_3_LLC_RFO_hit 226057
Core_3_LLC_RFO_miss 153002
Core_3_LLC_prefetches 2500420
Core_3_LLC_prefetch_hit 1782590
Core_3_LLC_prefetch_miss 717830
Core_3_LLC_writebacks 541005
Core_3_LLC_writeback_hit 519432
Core_3_LLC_writeback_miss 21573
Core_3_LLC_prefetch_requested 0
Core_3_LLC_prefetch_dropped 0
Core_3_LLC_prefetch_issued 0
Core_3_LLC_prefetch_filled 4362182
Core_3_LLC_prefetch_useful 108800
Core_3_LLC_prefetch_useless 4173701
Core_3_LLC_prefetch_late 0
Core_3_LLC_average_miss_latency 721.59230

Core_3_LLC_rq_access 5340807
Core_3_LLC_rq_forward 0
Core_3_LLC_rq_merged 0
Core_3_LLC_rq_to_cache 5340175
Core_3_LLC_rq_full 0

Core_3_LLC_wq_access 2517020
Core_3_LLC_wq_forward 726
Core_3_LLC_wq_merged 0
Core_3_LLC_wq_to_cache 2517020
Core_3_LLC_wq_full 0

Core_3_LLC_pq_access 17259848
Core_3_LLC_pq_forward 0
Core_3_LLC_pq_merged 0
Core_3_LLC_pq_to_cache 17259745
Core_3_LLC_pq_full 0

Core_3_LLC_acc_epochs 707566
Core_3_LLC_acc_level_0 652907
Core_3_LLC_acc_level_1 27515
Core_3_LLC_acc_level_2 13421
Core_3_LLC_acc_level_3 3075
Core_3_LLC_acc_level_4 601
Core_3_LLC_acc_level_5 7121
Core_3_LLC_acc_level_6 537
Core_3_LLC_acc_level_7 579
Core_3_LLC_acc_level_8 126
Core_3_LLC_acc_level_9 1684

Core_3_major_page_fault 0
Core_3_minor_page_fault 16956

Channel_0_RQ_row_buffer_hit 635027
Channel_0_RQ_row_buffer_miss 1453295
Channel_0_WQ_row_buffer_hit 62940
Channel_0_WQ_row_buffer_miss 299665
Channel_0_WQ_full 0
Channel_0_dbus_congested 705386

Channel_1_RQ_row_buffer_hit 634300
Channel_1_RQ_row_buffer_miss 1451143
Channel_1_WQ_row_buffer_hit 62305
Channel_1_WQ_row_buffer_miss 299494
Channel_1_WQ_full 0
Channel_1_dbus_congested 697024

avg_congested_cycle 9

DRAM_bw_pochs 2830264
DRAM_bw_level_0 2588877
DRAM_bw_level_1 180129
DRAM_bw_level_2 41677
DRAM_bw_level_3 19581
