*************************************************
   ChampSim Multicore Out-of-Order Simulator
   Last compiled: Mar 31 2025 20:14:32
*************************************************
parsing config file: /data3/config/bingo.ini

trace_0 /data3/STREAMING/traces/streaming_phase1_core0.trace.xz
trace_1 /data3/STREAMING/traces/streaming_phase1_core1.trace.xz
trace_2 /data3/STREAMING/traces/streaming_phase1_core2.trace.xz
trace_3 /data3/STREAMING/traces/streaming_phase1_core3.trace.xz
adding L2C_PREFETCHER: Bingo
adding L2C_PREFETCHER: Bingo
adding L2C_PREFETCHER: Bingo
adding L2C_PREFETCHER: Bingo
Initialize SHIP state
warmup_instructions 50000000
simulation_instructions 150000000
champsim_seed 8850
measure_ipc 0
measure_ipc_epoch 1000
measure_dram_bw 1
measure_dram_bw_epoch 256
measure_cache_acc 1
measure_cache_acc_epoch 1024
l1d_perfect 0
l2c_perfect 0
llc_perfect 0
l1d_semi_perfect 0
l2c_semi_perfect 0
llc_semi_perfect 0
semi_perfect_cache_page_buffer_size 64

num_cpus 4
cpu_freq 4000
dram_io_freq 2400
page_size 4096
block_size 64
max_read_per_cycle 8
max_fill_per_cycle 1
dram_channels 2
log2_dram_channels 1
dram_ranks 1
dram_banks 8
dram_rows 65536
dram_columns 128
dram_row_size 8
dram_size 8192
dram_pages 2097152

fetch_width 6
decode_width 6
exec_width 4
lq_width 2
sq_width 2
retire_width 4
scheduler_size 128
branch_mispredict_penalty 20
rob_size 256
lq_size 72
sq_size 56
num_instr_destinations_sparc 4
num_instr_destinations 2
num_instr_sources 4

itlb_set 16
itlb_way 8
itlb_rq_size 16
itlb_wq_size 16
itlb_pq_size 0
itlb_mshr_size 8
itlb_latency 1

dtlb_set 16
dtlb_way 4
dtlb_rq_size 16
dtlb_wq_size 16
dtlb_pq_size 0
dtlb_mshr_size 8
dtlb_latency 1

stlb_set 128
stlb_way 12
stlb_rq_size 32
stlb_wq_size 32
stlb_pq_size 0
stlb_mshr_size 16
stlb_latency 8

l1i_size 32
l1i_set 64
l1i_way 8
l1i_rq_size 64
l1i_wq_size 64
l1i_pq_size 8
l1i_mshr_size 8
l1i_latency 1

l1d_size 32
l1d_set 64
l1d_way 8
l1d_rq_size 64
l1d_wq_size 64
l1d_pq_size 8
l1d_mshr_size 16
l1d_latency 4

l2c_size 256
l2c_set 512
l2c_way 8
l2c_rq_size 32
l2c_wq_size 32
l2c_pq_size 32
l2c_mshr_size 32
l2c_latency 10

llc_size 8192
llc_set 8192
llc_way 16
llc_rq_size 128
llc_wq_size 128
llc_pq_size 128
llc_mshr_size 256
llc_latency 20

dram_channel_width 8
dram_wq_size 64
dram_rq_size 64
tRP 15
tRCD 15
tCAS 12.5
dram_dbus_turn_around_time 30
dram_write_high_wm 56
dram_write_low_wm 48
min_dram_writes_per_switch 16
dram_mtps 2400
dram_dbus_return_time 13

bingo_region_size 2048
bingo_pattern_len 32
bingo_pc_width 16
bingo_min_addr_width 5
bingo_max_addr_width 16
bingo_ft_size 64
bingo_at_size 128
bingo_pht_size 4096
bingo_pht_ways 16
bingo_pf_streamer_size 128
bingo_debug_level 0
bingo_l1d_thresh 1.01
bingo_l2c_thresh 0.8
bingo_llc_thresh 0.05
bingo_pc_address_fill_level L2


Heartbeat CPU  2 instructions:    1000003 cycles:     309535 heartbeat IPC: 3.23066 cumulative IPC: 3.23066 (Simulation time: 0 hr 0 min 3 sec) 
Heartbeat CPU  1 instructions:    1000000 cycles:     579530 heartbeat IPC: 1.72554 cumulative IPC: 1.72554 (Simulation time: 0 hr 0 min 7 sec) 
Heartbeat CPU  3 instructions:    1000000 cycles:     601156 heartbeat IPC: 1.66346 cumulative IPC: 1.66346 (Simulation time: 0 hr 0 min 8 sec) 
Heartbeat CPU  0 instructions:    1000003 cycles:     602690 heartbeat IPC: 1.65923 cumulative IPC: 1.65923 (Simulation time: 0 hr 0 min 8 sec) 
Heartbeat CPU  2 instructions:    2000002 cycles:     625640 heartbeat IPC: 3.16350 cumulative IPC: 3.19673 (Simulation time: 0 hr 0 min 8 sec) 
Heartbeat CPU  2 instructions:    3000001 cycles:     929695 heartbeat IPC: 3.28888 cumulative IPC: 3.22687 (Simulation time: 0 hr 0 min 13 sec) 
Heartbeat CPU  1 instructions:    2000001 cycles:    1062389 heartbeat IPC: 2.07100 cumulative IPC: 1.88255 (Simulation time: 0 hr 0 min 15 sec) 
Heartbeat CPU  3 instructions:    2000000 cycles:    1096663 heartbeat IPC: 2.01814 cumulative IPC: 1.82371 (Simulation time: 0 hr 0 min 15 sec) 
Heartbeat CPU  0 instructions:    2000000 cycles:    1124256 heartbeat IPC: 1.91730 cumulative IPC: 1.77895 (Simulation time: 0 hr 0 min 16 sec) 
Heartbeat CPU  2 instructions:    4000000 cycles:    1231313 heartbeat IPC: 3.31545 cumulative IPC: 3.24856 (Simulation time: 0 hr 0 min 17 sec) 
Heartbeat CPU  2 instructions:    5000000 cycles:    1540338 heartbeat IPC: 3.23598 cumulative IPC: 3.24604 (Simulation time: 0 hr 0 min 22 sec) 
Heartbeat CPU  1 instructions:    3000001 cycles:    1542884 heartbeat IPC: 2.08119 cumulative IPC: 1.94441 (Simulation time: 0 hr 0 min 22 sec) 
Heartbeat CPU  0 instructions:    3000003 cycles:    1617722 heartbeat IPC: 2.02649 cumulative IPC: 1.85446 (Simulation time: 0 hr 0 min 24 sec) 
Heartbeat CPU  3 instructions:    3000003 cycles:    1618008 heartbeat IPC: 1.91812 cumulative IPC: 1.85413 (Simulation time: 0 hr 0 min 24 sec) 
Heartbeat CPU  2 instructions:    6000000 cycles:    1848393 heartbeat IPC: 3.24617 cumulative IPC: 3.24606 (Simulation time: 0 hr 0 min 27 sec) 
Heartbeat CPU  1 instructions:    4000000 cycles:    1991191 heartbeat IPC: 2.23061 cumulative IPC: 2.00885 (Simulation time: 0 hr 0 min 29 sec) 
Heartbeat CPU  0 instructions:    4000000 cycles:    2113261 heartbeat IPC: 2.01800 cumulative IPC: 1.89281 (Simulation time: 0 hr 0 min 31 sec) 
Heartbeat CPU  3 instructions:    4000000 cycles:    2116421 heartbeat IPC: 2.00636 cumulative IPC: 1.88998 (Simulation time: 0 hr 0 min 31 sec) 
Heartbeat CPU  1 instructions:    5000002 cycles:    2448440 heartbeat IPC: 2.18700 cumulative IPC: 2.04212 (Simulation time: 0 hr 0 min 35 sec) 
Heartbeat CPU  3 instructions:    5000000 cycles:    2603261 heartbeat IPC: 2.05406 cumulative IPC: 1.92067 (Simulation time: 0 hr 0 min 37 sec) 
Heartbeat CPU  2 instructions:    7000000 cycles:    2636864 heartbeat IPC: 1.26828 cumulative IPC: 2.65467 (Simulation time: 0 hr 0 min 37 sec) 
Heartbeat CPU  0 instructions:    5000002 cycles:    2673194 heartbeat IPC: 1.78593 cumulative IPC: 1.87042 (Simulation time: 0 hr 0 min 38 sec) 
Heartbeat CPU  1 instructions:    6000001 cycles:    2917263 heartbeat IPC: 2.13300 cumulative IPC: 2.05672 (Simulation time: 0 hr 0 min 41 sec) 
Heartbeat CPU  3 instructions:    6000000 cycles:    2978631 heartbeat IPC: 2.66404 cumulative IPC: 2.01435 (Simulation time: 0 hr 0 min 42 sec) 
Heartbeat CPU  0 instructions:    6000001 cycles:    3205844 heartbeat IPC: 1.87740 cumulative IPC: 1.87158 (Simulation time: 0 hr 0 min 44 sec) 
Heartbeat CPU  2 instructions:    8000000 cycles:    3296140 heartbeat IPC: 1.51682 cumulative IPC: 2.42708 (Simulation time: 0 hr 0 min 45 sec) 
Heartbeat CPU  1 instructions:    7000001 cycles:    3526293 heartbeat IPC: 1.64196 cumulative IPC: 1.98509 (Simulation time: 0 hr 0 min 48 sec) 
Heartbeat CPU  3 instructions:    7000000 cycles:    3550248 heartbeat IPC: 1.74942 cumulative IPC: 1.97169 (Simulation time: 0 hr 0 min 48 sec) 
Heartbeat CPU  0 instructions:    7000001 cycles:    3800952 heartbeat IPC: 1.68037 cumulative IPC: 1.84164 (Simulation time: 0 hr 0 min 51 sec) 
Heartbeat CPU  2 instructions:    9000001 cycles:    3924577 heartbeat IPC: 1.59125 cumulative IPC: 2.29324 (Simulation time: 0 hr 0 min 53 sec) 
Heartbeat CPU  3 instructions:    8000000 cycles:    4049110 heartbeat IPC: 2.00456 cumulative IPC: 1.97574 (Simulation time: 0 hr 0 min 54 sec) 
Heartbeat CPU  1 instructions:    8000000 cycles:    4075844 heartbeat IPC: 1.81967 cumulative IPC: 1.96278 (Simulation time: 0 hr 0 min 55 sec) 
Heartbeat CPU  0 instructions:    8000000 cycles:    4338261 heartbeat IPC: 1.86112 cumulative IPC: 1.84406 (Simulation time: 0 hr 0 min 58 sec) 
Heartbeat CPU  2 instructions:   10000000 cycles:    4536306 heartbeat IPC: 1.63471 cumulative IPC: 2.20444 (Simulation time: 0 hr 1 min 1 sec) 
Heartbeat CPU  3 instructions:    9000000 cycles:    4577603 heartbeat IPC: 1.89217 cumulative IPC: 1.96609 (Simulation time: 0 hr 1 min 1 sec) 
Heartbeat CPU  1 instructions:    9000002 cycles:    4608858 heartbeat IPC: 1.87613 cumulative IPC: 1.95276 (Simulation time: 0 hr 1 min 1 sec) 
Heartbeat CPU  0 instructions:    9000000 cycles:    4854309 heartbeat IPC: 1.93780 cumulative IPC: 1.85402 (Simulation time: 0 hr 1 min 4 sec) 
Heartbeat CPU  2 instructions:   11000002 cycles:    5045645 heartbeat IPC: 1.96333 cumulative IPC: 2.18010 (Simulation time: 0 hr 1 min 7 sec) 
Heartbeat CPU  3 instructions:   10000000 cycles:    5130601 heartbeat IPC: 1.80832 cumulative IPC: 1.94909 (Simulation time: 0 hr 1 min 8 sec) 
Heartbeat CPU  1 instructions:   10000001 cycles:    5186411 heartbeat IPC: 1.73144 cumulative IPC: 1.92812 (Simulation time: 0 hr 1 min 9 sec) 
Heartbeat CPU  2 instructions:   12000000 cycles:    5355149 heartbeat IPC: 3.23097 cumulative IPC: 2.24083 (Simulation time: 0 hr 1 min 11 sec) 
Heartbeat CPU  0 instructions:   10000003 cycles:    5390880 heartbeat IPC: 1.86369 cumulative IPC: 1.85499 (Simulation time: 0 hr 1 min 12 sec) 
Heartbeat CPU  3 instructions:   11000000 cycles:    5659309 heartbeat IPC: 1.89140 cumulative IPC: 1.94370 (Simulation time: 0 hr 1 min 16 sec) 
Heartbeat CPU  2 instructions:   13000001 cycles:    5660213 heartbeat IPC: 3.27800 cumulative IPC: 2.29673 (Simulation time: 0 hr 1 min 16 sec) 
Heartbeat CPU  1 instructions:   11000001 cycles:    5719513 heartbeat IPC: 1.87581 cumulative IPC: 1.92324 (Simulation time: 0 hr 1 min 17 sec) 
Heartbeat CPU  0 instructions:   11000002 cycles:    5930856 heartbeat IPC: 1.85193 cumulative IPC: 1.85471 (Simulation time: 0 hr 1 min 20 sec) 
Heartbeat CPU  2 instructions:   14000000 cycles:    5965766 heartbeat IPC: 3.27275 cumulative IPC: 2.34672 (Simulation time: 0 hr 1 min 21 sec) 
Heartbeat CPU  3 instructions:   12000000 cycles:    6147741 heartbeat IPC: 2.04737 cumulative IPC: 1.95194 (Simulation time: 0 hr 1 min 24 sec) 
Heartbeat CPU  1 instructions:   12000000 cycles:    6189734 heartbeat IPC: 2.12666 cumulative IPC: 1.93869 (Simulation time: 0 hr 1 min 24 sec) 
Heartbeat CPU  2 instructions:   15000003 cycles:    6270759 heartbeat IPC: 3.27877 cumulative IPC: 2.39206 (Simulation time: 0 hr 1 min 26 sec) 
Heartbeat CPU  0 instructions:   12000000 cycles:    6427331 heartbeat IPC: 2.01420 cumulative IPC: 1.86703 (Simulation time: 0 hr 1 min 28 sec) 
Heartbeat CPU  2 instructions:   16000000 cycles:    6570815 heartbeat IPC: 3.33270 cumulative IPC: 2.43501 (Simulation time: 0 hr 1 min 30 sec) 
Heartbeat CPU  3 instructions:   13000000 cycles:    6633333 heartbeat IPC: 2.05934 cumulative IPC: 1.95980 (Simulation time: 0 hr 1 min 31 sec) 
Heartbeat CPU  1 instructions:   13000002 cycles:    6668916 heartbeat IPC: 2.08689 cumulative IPC: 1.94934 (Simulation time: 0 hr 1 min 32 sec) 
Heartbeat CPU  2 instructions:   17000000 cycles:    6868970 heartbeat IPC: 3.35396 cumulative IPC: 2.47490 (Simulation time: 0 hr 1 min 35 sec) 
Heartbeat CPU  0 instructions:   13000001 cycles:    6922354 heartbeat IPC: 2.02011 cumulative IPC: 1.87797 (Simulation time: 0 hr 1 min 36 sec) 
Heartbeat CPU  3 instructions:   14000000 cycles:    7098090 heartbeat IPC: 2.15166 cumulative IPC: 1.97236 (Simulation time: 0 hr 1 min 39 sec) 
Heartbeat CPU  1 instructions:   14000000 cycles:    7121178 heartbeat IPC: 2.21110 cumulative IPC: 1.96597 (Simulation time: 0 hr 1 min 39 sec) 
Heartbeat CPU  2 instructions:   18000000 cycles:    7164770 heartbeat IPC: 3.38066 cumulative IPC: 2.51229 (Simulation time: 0 hr 1 min 40 sec) 
Heartbeat CPU  0 instructions:   14000002 cycles:    7398726 heartbeat IPC: 2.09920 cumulative IPC: 1.89222 (Simulation time: 0 hr 1 min 44 sec) 
Heartbeat CPU  2 instructions:   19000001 cycles:    7461667 heartbeat IPC: 3.36817 cumulative IPC: 2.54635 (Simulation time: 0 hr 1 min 45 sec) 
Heartbeat CPU  1 instructions:   15000001 cycles:    7591506 heartbeat IPC: 2.12618 cumulative IPC: 1.97589 (Simulation time: 0 hr 1 min 47 sec) 
Heartbeat CPU  3 instructions:   15000000 cycles:    7613402 heartbeat IPC: 1.94057 cumulative IPC: 1.97021 (Simulation time: 0 hr 1 min 48 sec) 
Heartbeat CPU  2 instructions:   20000000 cycles:    7758536 heartbeat IPC: 3.36849 cumulative IPC: 2.57781 (Simulation time: 0 hr 1 min 50 sec) 
Heartbeat CPU  0 instructions:   15000002 cycles:    7876111 heartbeat IPC: 2.09475 cumulative IPC: 1.90449 (Simulation time: 0 hr 1 min 52 sec) 
Heartbeat CPU  2 instructions:   21000002 cycles:    8055681 heartbeat IPC: 3.36537 cumulative IPC: 2.60686 (Simulation time: 0 hr 1 min 55 sec) 
Heartbeat CPU  1 instructions:   16000000 cycles:    8066741 heartbeat IPC: 2.10422 cumulative IPC: 1.98345 (Simulation time: 0 hr 1 min 55 sec) 
Heartbeat CPU  3 instructions:   16000000 cycles:    8094407 heartbeat IPC: 2.07898 cumulative IPC: 1.97667 (Simulation time: 0 hr 1 min 56 sec) 
Heartbeat CPU  0 instructions:   16000000 cycles:    8341998 heartbeat IPC: 2.14644 cumulative IPC: 1.91801 (Simulation time: 0 hr 2 min 0 sec) 
Heartbeat CPU  2 instructions:   22000000 cycles:    8370828 heartbeat IPC: 3.17312 cumulative IPC: 2.62817 (Simulation time: 0 hr 2 min 0 sec) 
Heartbeat CPU  1 instructions:   17000002 cycles:    8549304 heartbeat IPC: 2.07227 cumulative IPC: 1.98847 (Simulation time: 0 hr 2 min 3 sec) 
Heartbeat CPU  3 instructions:   17000000 cycles:    8572926 heartbeat IPC: 2.08978 cumulative IPC: 1.98299 (Simulation time: 0 hr 2 min 4 sec) 
Heartbeat CPU  2 instructions:   23000000 cycles:    8668029 heartbeat IPC: 3.36473 cumulative IPC: 2.65343 (Simulation time: 0 hr 2 min 5 sec) 
Heartbeat CPU  0 instructions:   17000000 cycles:    8835100 heartbeat IPC: 2.02798 cumulative IPC: 1.92414 (Simulation time: 0 hr 2 min 8 sec) 
Heartbeat CPU  2 instructions:   24000000 cycles:    8969397 heartbeat IPC: 3.31820 cumulative IPC: 2.67577 (Simulation time: 0 hr 2 min 10 sec) 
Heartbeat CPU  1 instructions:   18000000 cycles:    9067222 heartbeat IPC: 1.93080 cumulative IPC: 1.98517 (Simulation time: 0 hr 2 min 11 sec) 
Heartbeat CPU  3 instructions:   18000000 cycles:    9081387 heartbeat IPC: 1.96672 cumulative IPC: 1.98208 (Simulation time: 0 hr 2 min 12 sec) 
Heartbeat CPU  0 instructions:   18000002 cycles:    9285207 heartbeat IPC: 2.22170 cumulative IPC: 1.93857 (Simulation time: 0 hr 2 min 15 sec) 
Heartbeat CPU  2 instructions:   25000000 cycles:    9288475 heartbeat IPC: 3.13403 cumulative IPC: 2.69151 (Simulation time: 0 hr 2 min 15 sec) 
Heartbeat CPU  1 instructions:   19000000 cycles:    9576051 heartbeat IPC: 1.96530 cumulative IPC: 1.98412 (Simulation time: 0 hr 2 min 20 sec) 
Heartbeat CPU  2 instructions:   26000001 cycles:    9582303 heartbeat IPC: 3.40336 cumulative IPC: 2.71334 (Simulation time: 0 hr 2 min 20 sec) 
Heartbeat CPU  3 instructions:   19000003 cycles:    9590812 heartbeat IPC: 1.96300 cumulative IPC: 1.98106 (Simulation time: 0 hr 2 min 20 sec) 
Heartbeat CPU  0 instructions:   19000001 cycles:    9724553 heartbeat IPC: 2.27611 cumulative IPC: 1.95382 (Simulation time: 0 hr 2 min 22 sec) 
Heartbeat CPU  2 instructions:   27000003 cycles:    9878367 heartbeat IPC: 3.37765 cumulative IPC: 2.73325 (Simulation time: 0 hr 2 min 25 sec) 
Heartbeat CPU  1 instructions:   20000000 cycles:   10059121 heartbeat IPC: 2.07009 cumulative IPC: 1.98825 (Simulation time: 0 hr 2 min 27 sec) 
Heartbeat CPU  3 instructions:   20000000 cycles:   10094043 heartbeat IPC: 1.98715 cumulative IPC: 1.98137 (Simulation time: 0 hr 2 min 28 sec) 
Heartbeat CPU  2 instructions:   28000000 cycles:   10176556 heartbeat IPC: 3.35357 cumulative IPC: 2.75142 (Simulation time: 0 hr 2 min 29 sec) 
Heartbeat CPU  0 instructions:   20000000 cycles:   10237501 heartbeat IPC: 1.94951 cumulative IPC: 1.95360 (Simulation time: 0 hr 2 min 30 sec) 
Heartbeat CPU  2 instructions:   29000003 cycles:   10473366 heartbeat IPC: 3.36917 cumulative IPC: 2.76893 (Simulation time: 0 hr 2 min 34 sec) 
Heartbeat CPU  1 instructions:   21000001 cycles:   10556892 heartbeat IPC: 2.00896 cumulative IPC: 1.98922 (Simulation time: 0 hr 2 min 36 sec) 
Heartbeat CPU  3 instructions:   21000001 cycles:   10578646 heartbeat IPC: 2.06355 cumulative IPC: 1.98513 (Simulation time: 0 hr 2 min 36 sec) 
Heartbeat CPU  0 instructions:   21000001 cycles:   10731190 heartbeat IPC: 2.02557 cumulative IPC: 1.95691 (Simulation time: 0 hr 2 min 38 sec) 
Heartbeat CPU  2 instructions:   30000000 cycles:   10766625 heartbeat IPC: 3.40994 cumulative IPC: 2.78639 (Simulation time: 0 hr 2 min 39 sec) 
Heartbeat CPU  1 instructions:   22000000 cycles:   11031985 heartbeat IPC: 2.10485 cumulative IPC: 1.99420 (Simulation time: 0 hr 2 min 43 sec) 
Heartbeat CPU  2 instructions:   31000001 cycles:   11062993 heartbeat IPC: 3.37419 cumulative IPC: 2.80213 (Simulation time: 0 hr 2 min 44 sec) 
Heartbeat CPU  3 instructions:   22000002 cycles:   11070529 heartbeat IPC: 2.03301 cumulative IPC: 1.98726 (Simulation time: 0 hr 2 min 44 sec) 
Heartbeat CPU  0 instructions:   22000000 cycles:   11214140 heartbeat IPC: 2.07061 cumulative IPC: 1.96181 (Simulation time: 0 hr 2 min 46 sec) 
Heartbeat CPU  2 instructions:   32000000 cycles:   11360406 heartbeat IPC: 3.36232 cumulative IPC: 2.81680 (Simulation time: 0 hr 2 min 49 sec) 
Heartbeat CPU  1 instructions:   23000002 cycles:   11496644 heartbeat IPC: 2.15212 cumulative IPC: 2.00058 (Simulation time: 0 hr 2 min 51 sec) 
Heartbeat CPU  3 instructions:   23000002 cycles:   11566317 heartbeat IPC: 2.01699 cumulative IPC: 1.98853 (Simulation time: 0 hr 2 min 52 sec) 
Heartbeat CPU  2 instructions:   33000001 cycles:   11657665 heartbeat IPC: 3.36407 cumulative IPC: 2.83076 (Simulation time: 0 hr 2 min 54 sec) 
Heartbeat CPU  0 instructions:   23000000 cycles:   11673392 heartbeat IPC: 2.17745 cumulative IPC: 1.97029 (Simulation time: 0 hr 2 min 54 sec) 
Heartbeat CPU  2 instructions:   34000002 cycles:   11959381 heartbeat IPC: 3.31438 cumulative IPC: 2.84296 (Simulation time: 0 hr 2 min 59 sec) 
Heartbeat CPU  1 instructions:   24000000 cycles:   11976800 heartbeat IPC: 2.08265 cumulative IPC: 2.00387 (Simulation time: 0 hr 2 min 59 sec) 
Heartbeat CPU  3 instructions:   24000000 cycles:   12024137 heartbeat IPC: 2.18426 cumulative IPC: 1.99599 (Simulation time: 0 hr 3 min 0 sec) 
Heartbeat CPU  0 instructions:   24000000 cycles:   12133142 heartbeat IPC: 2.17510 cumulative IPC: 1.97805 (Simulation time: 0 hr 3 min 2 sec) 
Heartbeat CPU  2 instructions:   35000002 cycles:   12253319 heartbeat IPC: 3.40208 cumulative IPC: 2.85637 (Simulation time: 0 hr 3 min 4 sec) 
Heartbeat CPU  1 instructions:   25000003 cycles:   12452122 heartbeat IPC: 2.10384 cumulative IPC: 2.00769 (Simulation time: 0 hr 3 min 7 sec) 
Heartbeat CPU  3 instructions:   25000000 cycles:   12488895 heartbeat IPC: 2.15166 cumulative IPC: 2.00178 (Simulation time: 0 hr 3 min 8 sec) 
Heartbeat CPU  2 instructions:   36000000 cycles:   12555698 heartbeat IPC: 3.30710 cumulative IPC: 2.86722 (Simulation time: 0 hr 3 min 9 sec) 
Heartbeat CPU  0 instructions:   25000003 cycles:   12605863 heartbeat IPC: 2.11542 cumulative IPC: 1.98320 (Simulation time: 0 hr 3 min 10 sec) 
Heartbeat CPU  1 instructions:   26000000 cycles:   12931795 heartbeat IPC: 2.08475 cumulative IPC: 2.01055 (Simulation time: 0 hr 3 min 14 sec) 
Heartbeat CPU  3 instructions:   26000003 cycles:   12977690 heartbeat IPC: 2.04585 cumulative IPC: 2.00344 (Simulation time: 0 hr 3 min 15 sec) 
Heartbeat CPU  2 instructions:   37000001 cycles:   13058775 heartbeat IPC: 1.98777 cumulative IPC: 2.83334 (Simulation time: 0 hr 3 min 16 sec) 
Heartbeat CPU  0 instructions:   26000000 cycles:   13087483 heartbeat IPC: 2.07632 cumulative IPC: 1.98663 (Simulation time: 0 hr 3 min 17 sec) 
Heartbeat CPU  1 instructions:   27000001 cycles:   13401998 heartbeat IPC: 2.12674 cumulative IPC: 2.01463 (Simulation time: 0 hr 3 min 21 sec) 
Heartbeat CPU  3 instructions:   27000001 cycles:   13478840 heartbeat IPC: 1.99541 cumulative IPC: 2.00314 (Simulation time: 0 hr 3 min 22 sec) 
Heartbeat CPU  0 instructions:   27000003 cycles:   13583802 heartbeat IPC: 2.01484 cumulative IPC: 1.98766 (Simulation time: 0 hr 3 min 23 sec) 
Heartbeat CPU  2 instructions:   38000000 cycles:   13651804 heartbeat IPC: 1.68626 cumulative IPC: 2.78351 (Simulation time: 0 hr 3 min 24 sec) 
Heartbeat CPU  1 instructions:   28000000 cycles:   13890917 heartbeat IPC: 2.04533 cumulative IPC: 2.01571 (Simulation time: 0 hr 3 min 28 sec) 
Heartbeat CPU  3 instructions:   28000000 cycles:   13973494 heartbeat IPC: 2.02161 cumulative IPC: 2.00379 (Simulation time: 0 hr 3 min 29 sec) 
Heartbeat CPU  0 instructions:   28000000 cycles:   14067011 heartbeat IPC: 2.06949 cumulative IPC: 1.99047 (Simulation time: 0 hr 3 min 30 sec) 
Heartbeat CPU  2 instructions:   39000002 cycles:   14182151 heartbeat IPC: 1.88556 cumulative IPC: 2.74994 (Simulation time: 0 hr 3 min 32 sec) 
Heartbeat CPU  1 instructions:   29000000 cycles:   14381822 heartbeat IPC: 2.03705 cumulative IPC: 2.01643 (Simulation time: 0 hr 3 min 35 sec) 
Heartbeat CPU  3 instructions:   29000000 cycles:   14475585 heartbeat IPC: 1.99167 cumulative IPC: 2.00337 (Simulation time: 0 hr 3 min 36 sec) 
Heartbeat CPU  0 instructions:   29000001 cycles:   14535400 heartbeat IPC: 2.13498 cumulative IPC: 1.99513 (Simulation time: 0 hr 3 min 37 sec) 
Heartbeat CPU  2 instructions:   40000000 cycles:   14706086 heartbeat IPC: 1.90863 cumulative IPC: 2.71996 (Simulation time: 0 hr 3 min 40 sec) 
Heartbeat CPU  1 instructions:   30000001 cycles:   14874864 heartbeat IPC: 2.02823 cumulative IPC: 2.01683 (Simulation time: 0 hr 3 min 42 sec) 
Heartbeat CPU  3 instructions:   30000001 cycles:   14944357 heartbeat IPC: 2.13324 cumulative IPC: 2.00745 (Simulation time: 0 hr 3 min 43 sec) 
Heartbeat CPU  0 instructions:   30000001 cycles:   15022552 heartbeat IPC: 2.05275 cumulative IPC: 1.99700 (Simulation time: 0 hr 3 min 44 sec) 
Heartbeat CPU  2 instructions:   41000000 cycles:   15292974 heartbeat IPC: 1.70390 cumulative IPC: 2.68097 (Simulation time: 0 hr 3 min 48 sec) 
Heartbeat CPU  1 instructions:   31000002 cycles:   15337473 heartbeat IPC: 2.16165 cumulative IPC: 2.02119 (Simulation time: 0 hr 3 min 49 sec) 
Heartbeat CPU  3 instructions:   31000001 cycles:   15394871 heartbeat IPC: 2.21969 cumulative IPC: 2.01366 (Simulation time: 0 hr 3 min 50 sec) 
Heartbeat CPU  0 instructions:   31000000 cycles:   15505865 heartbeat IPC: 2.06905 cumulative IPC: 1.99924 (Simulation time: 0 hr 3 min 51 sec) 
Heartbeat CPU  1 instructions:   32000000 cycles:   15823243 heartbeat IPC: 2.05858 cumulative IPC: 2.02234 (Simulation time: 0 hr 3 min 56 sec) 
Heartbeat CPU  3 instructions:   32000000 cycles:   15840673 heartbeat IPC: 2.24315 cumulative IPC: 2.02012 (Simulation time: 0 hr 3 min 56 sec) 
Heartbeat CPU  2 instructions:   42000000 cycles:   15869878 heartbeat IPC: 1.73339 cumulative IPC: 2.64652 (Simulation time: 0 hr 3 min 56 sec) 
Heartbeat CPU  0 instructions:   32000000 cycles:   15982056 heartbeat IPC: 2.10000 cumulative IPC: 2.00225 (Simulation time: 0 hr 3 min 58 sec) 
Heartbeat CPU  3 instructions:   33000003 cycles:   16291049 heartbeat IPC: 2.22037 cumulative IPC: 2.02565 (Simulation time: 0 hr 4 min 2 sec) 
Heartbeat CPU  1 instructions:   33000000 cycles:   16342173 heartbeat IPC: 1.92704 cumulative IPC: 2.01932 (Simulation time: 0 hr 4 min 3 sec) 
Heartbeat CPU  2 instructions:   43000001 cycles:   16449498 heartbeat IPC: 1.72527 cumulative IPC: 2.61406 (Simulation time: 0 hr 4 min 4 sec) 
Heartbeat CPU  0 instructions:   33000000 cycles:   16464692 heartbeat IPC: 2.07195 cumulative IPC: 2.00429 (Simulation time: 0 hr 4 min 5 sec) 
Heartbeat CPU  3 instructions:   34000003 cycles:   16778083 heartbeat IPC: 2.05324 cumulative IPC: 2.02645 (Simulation time: 0 hr 4 min 9 sec) 
Heartbeat CPU  1 instructions:   34000001 cycles:   16809617 heartbeat IPC: 2.13930 cumulative IPC: 2.02265 (Simulation time: 0 hr 4 min 9 sec) 
Heartbeat CPU  0 instructions:   34000003 cycles:   16966375 heartbeat IPC: 1.99330 cumulative IPC: 2.00396 (Simulation time: 0 hr 4 min 11 sec) 
Heartbeat CPU  2 instructions:   44000000 cycles:   17071051 heartbeat IPC: 1.60887 cumulative IPC: 2.57746 (Simulation time: 0 hr 4 min 13 sec) 
Heartbeat CPU  3 instructions:   35000002 cycles:   17255313 heartbeat IPC: 2.09542 cumulative IPC: 2.02836 (Simulation time: 0 hr 4 min 16 sec) 
Heartbeat CPU  1 instructions:   35000000 cycles:   17294557 heartbeat IPC: 2.06211 cumulative IPC: 2.02376 (Simulation time: 0 hr 4 min 16 sec) 
Heartbeat CPU  0 instructions:   35000000 cycles:   17443210 heartbeat IPC: 2.09716 cumulative IPC: 2.00651 (Simulation time: 0 hr 4 min 18 sec) 
Heartbeat CPU  2 instructions:   45000003 cycles:   17655535 heartbeat IPC: 1.71092 cumulative IPC: 2.54878 (Simulation time: 0 hr 4 min 21 sec) 
Heartbeat CPU  3 instructions:   36000000 cycles:   17728310 heartbeat IPC: 2.11417 cumulative IPC: 2.03065 (Simulation time: 0 hr 4 min 22 sec) 
Heartbeat CPU  1 instructions:   36000000 cycles:   17775286 heartbeat IPC: 2.08017 cumulative IPC: 2.02528 (Simulation time: 0 hr 4 min 23 sec) 
Heartbeat CPU  0 instructions:   36000000 cycles:   17906458 heartbeat IPC: 2.15867 cumulative IPC: 2.01045 (Simulation time: 0 hr 4 min 25 sec) 
Heartbeat CPU  3 instructions:   37000001 cycles:   18212102 heartbeat IPC: 2.06701 cumulative IPC: 2.03162 (Simulation time: 0 hr 4 min 29 sec) 
Heartbeat CPU  2 instructions:   46000001 cycles:   18235934 heartbeat IPC: 1.72295 cumulative IPC: 2.52249 (Simulation time: 0 hr 4 min 30 sec) 
Heartbeat CPU  1 instructions:   37000001 cycles:   18264157 heartbeat IPC: 2.04553 cumulative IPC: 2.02583 (Simulation time: 0 hr 4 min 30 sec) 
Heartbeat CPU  0 instructions:   37000003 cycles:   18407944 heartbeat IPC: 1.99408 cumulative IPC: 2.01000 (Simulation time: 0 hr 4 min 32 sec) 
Heartbeat CPU  3 instructions:   38000000 cycles:   18738182 heartbeat IPC: 1.90085 cumulative IPC: 2.02794 (Simulation time: 0 hr 4 min 36 sec) 
Heartbeat CPU  1 instructions:   38000000 cycles:   18797985 heartbeat IPC: 1.87326 cumulative IPC: 2.02149 (Simulation time: 0 hr 4 min 37 sec) 
Heartbeat CPU  2 instructions:   47000001 cycles:   18802641 heartbeat IPC: 1.76458 cumulative IPC: 2.49965 (Simulation time: 0 hr 4 min 37 sec) 
Heartbeat CPU  0 instructions:   38000002 cycles:   18925212 heartbeat IPC: 1.93323 cumulative IPC: 2.00790 (Simulation time: 0 hr 4 min 39 sec) 
Heartbeat CPU  3 instructions:   39000003 cycles:   19278943 heartbeat IPC: 1.84925 cumulative IPC: 2.02293 (Simulation time: 0 hr 4 min 43 sec) 
Heartbeat CPU  1 instructions:   39000003 cycles:   19314111 heartbeat IPC: 1.93752 cumulative IPC: 2.01925 (Simulation time: 0 hr 4 min 44 sec) 
Heartbeat CPU  2 instructions:   48000000 cycles:   19368463 heartbeat IPC: 1.76734 cumulative IPC: 2.47826 (Simulation time: 0 hr 4 min 45 sec) 
Heartbeat CPU  0 instructions:   39000003 cycles:   19449121 heartbeat IPC: 1.90873 cumulative IPC: 2.00523 (Simulation time: 0 hr 4 min 46 sec) 
Heartbeat CPU  1 instructions:   40000000 cycles:   19845238 heartbeat IPC: 1.88278 cumulative IPC: 2.01560 (Simulation time: 0 hr 4 min 50 sec) 
Heartbeat CPU  2 instructions:   49000001 cycles:   19945820 heartbeat IPC: 1.73203 cumulative IPC: 2.45666 (Simulation time: 0 hr 4 min 52 sec) 
Heartbeat CPU  3 instructions:   40000000 cycles:   19953648 heartbeat IPC: 1.48212 cumulative IPC: 2.00465 (Simulation time: 0 hr 4 min 52 sec) 
Heartbeat CPU  0 instructions:   40000000 cycles:   19970666 heartbeat IPC: 1.91737 cumulative IPC: 2.00294 (Simulation time: 0 hr 4 min 52 sec) 
Heartbeat CPU  1 instructions:   41000000 cycles:   20460830 heartbeat IPC: 1.62445 cumulative IPC: 2.00383 (Simulation time: 0 hr 4 min 57 sec) 
Heartbeat CPU  0 instructions:   41000002 cycles:   20492891 heartbeat IPC: 1.91489 cumulative IPC: 2.00069 (Simulation time: 0 hr 4 min 58 sec) 
Heartbeat CPU  2 instructions:   50000003 cycles:   20519978 heartbeat IPC: 1.74168 cumulative IPC: 2.43665 (Simulation time: 0 hr 4 min 58 sec) 
Heartbeat CPU  3 instructions:   41000000 cycles:   20598740 heartbeat IPC: 1.55017 cumulative IPC: 1.99041 (Simulation time: 0 hr 4 min 59 sec) 
Heartbeat CPU  1 instructions:   42000002 cycles:   20987046 heartbeat IPC: 1.90036 cumulative IPC: 2.00123 (Simulation time: 0 hr 5 min 4 sec) 
Heartbeat CPU  0 instructions:   42000001 cycles:   21017696 heartbeat IPC: 1.90547 cumulative IPC: 1.99832 (Simulation time: 0 hr 5 min 5 sec) 
Heartbeat CPU  2 instructions:   51000000 cycles:   21078140 heartbeat IPC: 1.79159 cumulative IPC: 0.04744 (Simulation time: 0 hr 5 min 5 sec) 
Heartbeat CPU  3 instructions:   42000003 cycles:   21204878 heartbeat IPC: 1.64979 cumulative IPC: 1.98068 (Simulation time: 0 hr 5 min 7 sec) 
Heartbeat CPU  1 instructions:   43000000 cycles:   21528555 heartbeat IPC: 1.84669 cumulative IPC: 1.99735 (Simulation time: 0 hr 5 min 10 sec) 
Heartbeat CPU  2 instructions:   52000000 cycles:   21634231 heartbeat IPC: 1.79827 cumulative IPC: 0.09245 (Simulation time: 0 hr 5 min 12 sec) 
Heartbeat CPU  0 instructions:   43000003 cycles:   21672978 heartbeat IPC: 1.52606 cumulative IPC: 1.98404 (Simulation time: 0 hr 5 min 12 sec) 
Heartbeat CPU  3 instructions:   43000001 cycles:   21756605 heartbeat IPC: 1.81249 cumulative IPC: 1.97641 (Simulation time: 0 hr 5 min 13 sec) 
Heartbeat CPU  1 instructions:   44000000 cycles:   22084180 heartbeat IPC: 1.79978 cumulative IPC: 1.99238 (Simulation time: 0 hr 5 min 18 sec) 
Heartbeat CPU  0 instructions:   44000000 cycles:   22195611 heartbeat IPC: 1.91338 cumulative IPC: 1.98237 (Simulation time: 0 hr 5 min 19 sec) 
Heartbeat CPU  2 instructions:   53000001 cycles:   22200537 heartbeat IPC: 1.76583 cumulative IPC: 0.13513 (Simulation time: 0 hr 5 min 19 sec) 
Heartbeat CPU  3 instructions:   44000000 cycles:   22299670 heartbeat IPC: 1.84140 cumulative IPC: 1.97312 (Simulation time: 0 hr 5 min 20 sec) 
Heartbeat CPU  1 instructions:   45000000 cycles:   22640828 heartbeat IPC: 1.79647 cumulative IPC: 1.98756 (Simulation time: 0 hr 5 min 24 sec) 
Heartbeat CPU  2 instructions:   54000000 cycles:   22755879 heartbeat IPC: 1.80069 cumulative IPC: 0.17578 (Simulation time: 0 hr 5 min 26 sec) 
Heartbeat CPU  3 instructions:   45000001 cycles:   22824181 heartbeat IPC: 1.90654 cumulative IPC: 1.97159 (Simulation time: 0 hr 5 min 27 sec) 
Heartbeat CPU  0 instructions:   45000000 cycles:   22877148 heartbeat IPC: 1.46727 cumulative IPC: 1.96703 (Simulation time: 0 hr 5 min 27 sec) 
Heartbeat CPU  1 instructions:   46000002 cycles:   23152976 heartbeat IPC: 1.95256 cumulative IPC: 1.98679 (Simulation time: 0 hr 5 min 31 sec) 
Heartbeat CPU  2 instructions:   55000002 cycles:   23329912 heartbeat IPC: 1.74206 cumulative IPC: 0.21432 (Simulation time: 0 hr 5 min 33 sec) 
Heartbeat CPU  3 instructions:   46000000 cycles:   23340130 heartbeat IPC: 1.93817 cumulative IPC: 1.97085 (Simulation time: 0 hr 5 min 33 sec) 
Heartbeat CPU  0 instructions:   46000000 cycles:   23491049 heartbeat IPC: 1.62893 cumulative IPC: 1.95819 (Simulation time: 0 hr 5 min 35 sec) 
Heartbeat CPU  1 instructions:   47000001 cycles:   23666849 heartbeat IPC: 1.94600 cumulative IPC: 1.98590 (Simulation time: 0 hr 5 min 37 sec) 
Heartbeat CPU  2 instructions:   56000000 cycles:   23864666 heartbeat IPC: 1.87002 cumulative IPC: 0.25142 (Simulation time: 0 hr 5 min 40 sec) 
Heartbeat CPU  3 instructions:   47000002 cycles:   23886457 heartbeat IPC: 1.83041 cumulative IPC: 1.96764 (Simulation time: 0 hr 5 min 40 sec) 
Heartbeat CPU  0 instructions:   47000000 cycles:   23998606 heartbeat IPC: 1.97022 cumulative IPC: 1.95845 (Simulation time: 0 hr 5 min 42 sec) 
Heartbeat CPU  1 instructions:   48000000 cycles:   24173107 heartbeat IPC: 1.97528 cumulative IPC: 1.98568 (Simulation time: 0 hr 5 min 44 sec) 
Heartbeat CPU  2 instructions:   57000001 cycles:   24177132 heartbeat IPC: 3.20035 cumulative IPC: 0.28953 (Simulation time: 0 hr 5 min 44 sec) 
Heartbeat CPU  3 instructions:   48000000 cycles:   24421709 heartbeat IPC: 1.86828 cumulative IPC: 1.96546 (Simulation time: 0 hr 5 min 48 sec) 
Heartbeat CPU  0 instructions:   48000000 cycles:   24523679 heartbeat IPC: 1.90450 cumulative IPC: 1.95729 (Simulation time: 0 hr 5 min 49 sec) 
Heartbeat CPU  2 instructions:   58000001 cycles:   24546201 heartbeat IPC: 2.70952 cumulative IPC: 0.32592 (Simulation time: 0 hr 5 min 50 sec) 
Heartbeat CPU  1 instructions:   49000001 cycles:   24691972 heartbeat IPC: 1.92729 cumulative IPC: 1.98445 (Simulation time: 0 hr 5 min 51 sec) 
Heartbeat CPU  3 instructions:   49000003 cycles:   24962152 heartbeat IPC: 1.85034 cumulative IPC: 1.96297 (Simulation time: 0 hr 5 min 55 sec) 
Heartbeat CPU  0 instructions:   49000003 cycles:   25038307 heartbeat IPC: 1.94316 cumulative IPC: 1.95700 (Simulation time: 0 hr 5 min 56 sec) 
Heartbeat CPU  2 instructions:   59000002 cycles:   25123633 heartbeat IPC: 1.73181 cumulative IPC: 0.35823 (Simulation time: 0 hr 5 min 57 sec) 
Heartbeat CPU  1 instructions:   50000000 cycles:   25231407 heartbeat IPC: 1.85379 cumulative IPC: 1.98166 (Simulation time: 0 hr 5 min 58 sec) 
Heartbeat CPU  3 instructions:   50000000 cycles:   25506661 heartbeat IPC: 1.83651 cumulative IPC: 1.96027 (Simulation time: 0 hr 6 min 2 sec) 
Heartbeat CPU  0 instructions:   50000003 cycles:   25578171 heartbeat IPC: 1.85232 cumulative IPC: 1.95479 (Simulation time: 0 hr 6 min 3 sec) 

Warmup complete CPU  0 instructions:   50000003 cycles:   25578171 (Simulation time: 0 hr 6 min 3 sec) 
Warmup complete CPU  1 instructions:   50610912 cycles:   25578170 (Simulation time: 0 hr 6 min 3 sec) 
Warmup complete CPU  2 instructions:   59827227 cycles:   25578171 (Simulation time: 0 hr 6 min 3 sec) 
Warmup complete CPU  3 instructions:   50148048 cycles:   25578171 (Simulation time: 0 hr 6 min 3 sec) 

Heartbeat CPU  2 instructions:   60000000 cycles:   26598410 heartbeat IPC: 0.67807 cumulative IPC: 0.16935 (Simulation time: 0 hr 6 min 5 sec) 
Heartbeat CPU  1 instructions:   51000000 cycles:   27347789 heartbeat IPC: 0.47250 cumulative IPC: 0.21987 (Simulation time: 0 hr 6 min 6 sec) 
Heartbeat CPU  3 instructions:   51000000 cycles:   29571382 heartbeat IPC: 0.24602 cumulative IPC: 0.21335 (Simulation time: 0 hr 6 min 10 sec) 
Heartbeat CPU  0 instructions:   51000001 cycles:   30284088 heartbeat IPC: 0.21250 cumulative IPC: 0.21250 (Simulation time: 0 hr 6 min 12 sec) 
Heartbeat CPU  1 instructions:   52000000 cycles:   32069658 heartbeat IPC: 0.21178 cumulative IPC: 0.21399 (Simulation time: 0 hr 6 min 15 sec) 
Heartbeat CPU  2 instructions:   61000000 cycles:   32318492 heartbeat IPC: 0.17482 cumulative IPC: 0.17399 (Simulation time: 0 hr 6 min 16 sec) 
Heartbeat CPU  3 instructions:   52000000 cycles:   34350035 heartbeat IPC: 0.20926 cumulative IPC: 0.21112 (Simulation time: 0 hr 6 min 20 sec) 
Heartbeat CPU  0 instructions:   52000000 cycles:   34921415 heartbeat IPC: 0.21564 cumulative IPC: 0.21406 (Simulation time: 0 hr 6 min 21 sec) 
Heartbeat CPU  2 instructions:   62000002 cycles:   35535304 heartbeat IPC: 0.31087 cumulative IPC: 0.21821 (Simulation time: 0 hr 6 min 22 sec) 
Heartbeat CPU  1 instructions:   53000002 cycles:   36755792 heartbeat IPC: 0.21340 cumulative IPC: 0.21374 (Simulation time: 0 hr 6 min 26 sec) 
Heartbeat CPU  2 instructions:   63000003 cycles:   36942611 heartbeat IPC: 0.71058 cumulative IPC: 0.27918 (Simulation time: 0 hr 6 min 26 sec) 
Heartbeat CPU  2 instructions:   64000000 cycles:   38332815 heartbeat IPC: 0.71932 cumulative IPC: 0.32716 (Simulation time: 0 hr 6 min 30 sec) 
Heartbeat CPU  3 instructions:   53000003 cycles:   39067695 heartbeat IPC: 0.21197 cumulative IPC: 0.21142 (Simulation time: 0 hr 6 min 32 sec) 
Heartbeat CPU  0 instructions:   53000001 cycles:   39615831 heartbeat IPC: 0.21302 cumulative IPC: 0.21371 (Simulation time: 0 hr 6 min 33 sec) 
Heartbeat CPU  2 instructions:   65000003 cycles:   39928991 heartbeat IPC: 0.62650 cumulative IPC: 0.36045 (Simulation time: 0 hr 6 min 34 sec) 
Heartbeat CPU  2 instructions:   66000001 cycles:   41157898 heartbeat IPC: 0.81373 cumulative IPC: 0.39621 (Simulation time: 0 hr 6 min 37 sec) 
Heartbeat CPU  1 instructions:   54000002 cycles:   41422445 heartbeat IPC: 0.21429 cumulative IPC: 0.21390 (Simulation time: 0 hr 6 min 38 sec) 
Heartbeat CPU  2 instructions:   67000002 cycles:   42159706 heartbeat IPC: 0.99820 cumulative IPC: 0.43258 (Simulation time: 0 hr 6 min 40 sec) 
Heartbeat CPU  2 instructions:   68000000 cycles:   43111391 heartbeat IPC: 1.05077 cumulative IPC: 0.46613 (Simulation time: 0 hr 6 min 43 sec) 
Heartbeat CPU  3 instructions:   54000000 cycles:   43746498 heartbeat IPC: 0.21373 cumulative IPC: 0.21201 (Simulation time: 0 hr 6 min 45 sec) 
Heartbeat CPU  0 instructions:   54000001 cycles:   44262405 heartbeat IPC: 0.21521 cumulative IPC: 0.21408 (Simulation time: 0 hr 6 min 46 sec) 
Heartbeat CPU  2 instructions:   69000000 cycles:   44412524 heartbeat IPC: 0.76856 cumulative IPC: 0.48702 (Simulation time: 0 hr 6 min 47 sec) 
Heartbeat CPU  2 instructions:   70000001 cycles:   45995001 heartbeat IPC: 0.63192 cumulative IPC: 0.49825 (Simulation time: 0 hr 6 min 51 sec) 
Heartbeat CPU  1 instructions:   55000002 cycles:   46120887 heartbeat IPC: 0.21284 cumulative IPC: 0.21366 (Simulation time: 0 hr 6 min 51 sec) 
Heartbeat CPU  2 instructions:   71000002 cycles:   47818964 heartbeat IPC: 0.54826 cumulative IPC: 0.50236 (Simulation time: 0 hr 6 min 55 sec) 
Heartbeat CPU  3 instructions:   55000001 cycles:   48456258 heartbeat IPC: 0.21233 cumulative IPC: 0.21208 (Simulation time: 0 hr 6 min 57 sec) 
Heartbeat CPU  0 instructions:   55000000 cycles:   48880262 heartbeat IPC: 0.21655 cumulative IPC: 0.21457 (Simulation time: 0 hr 6 min 58 sec) 
Heartbeat CPU  2 instructions:   72000000 cycles:   49620449 heartbeat IPC: 0.55510 cumulative IPC: 0.50631 (Simulation time: 0 hr 6 min 59 sec) 
Heartbeat CPU  1 instructions:   56000000 cycles:   50892701 heartbeat IPC: 0.20956 cumulative IPC: 0.21289 (Simulation time: 0 hr 7 min 2 sec) 
Heartbeat CPU  2 instructions:   73000002 cycles:   51457047 heartbeat IPC: 0.54449 cumulative IPC: 0.50902 (Simulation time: 0 hr 7 min 4 sec) 
Heartbeat CPU  2 instructions:   74000000 cycles:   52981580 heartbeat IPC: 0.65594 cumulative IPC: 0.51719 (Simulation time: 0 hr 7 min 8 sec) 
Heartbeat CPU  3 instructions:   56000000 cycles:   53063704 heartbeat IPC: 0.21704 cumulative IPC: 0.21291 (Simulation time: 0 hr 7 min 8 sec) 
Heartbeat CPU  0 instructions:   56000000 cycles:   53551753 heartbeat IPC: 0.21406 cumulative IPC: 0.21449 (Simulation time: 0 hr 7 min 9 sec) 
Heartbeat CPU  2 instructions:   75000001 cycles:   54838916 heartbeat IPC: 0.53841 cumulative IPC: 0.51854 (Simulation time: 0 hr 7 min 12 sec) 
Heartbeat CPU  1 instructions:   57000001 cycles:   55570093 heartbeat IPC: 0.21379 cumulative IPC: 0.21303 (Simulation time: 0 hr 7 min 14 sec) 
Heartbeat CPU  3 instructions:   57000000 cycles:   57542608 heartbeat IPC: 0.22327 cumulative IPC: 0.21436 (Simulation time: 0 hr 7 min 17 sec) 
Heartbeat CPU  0 instructions:   57000001 cycles:   58193514 heartbeat IPC: 0.21544 cumulative IPC: 0.21462 (Simulation time: 0 hr 7 min 19 sec) 
Heartbeat CPU  1 instructions:   58000001 cycles:   60220415 heartbeat IPC: 0.21504 cumulative IPC: 0.21330 (Simulation time: 0 hr 7 min 23 sec) 
Heartbeat CPU  2 instructions:   76000000 cycles:   60774611 heartbeat IPC: 0.16847 cumulative IPC: 0.45950 (Simulation time: 0 hr 7 min 24 sec) 
Heartbeat CPU  3 instructions:   58000001 cycles:   62176581 heartbeat IPC: 0.21580 cumulative IPC: 0.21454 (Simulation time: 0 hr 7 min 26 sec) 
Heartbeat CPU  0 instructions:   58000003 cycles:   62760288 heartbeat IPC: 0.21897 cumulative IPC: 0.21516 (Simulation time: 0 hr 7 min 28 sec) 
Heartbeat CPU  1 instructions:   59000002 cycles:   64805185 heartbeat IPC: 0.21811 cumulative IPC: 0.21386 (Simulation time: 0 hr 7 min 32 sec) 
Heartbeat CPU  2 instructions:   77000001 cycles:   66645449 heartbeat IPC: 0.17033 cumulative IPC: 0.41816 (Simulation time: 0 hr 7 min 35 sec) 
Heartbeat CPU  3 instructions:   59000003 cycles:   66884239 heartbeat IPC: 0.21242 cumulative IPC: 0.21430 (Simulation time: 0 hr 7 min 35 sec) 
Heartbeat CPU  0 instructions:   59000002 cycles:   67399964 heartbeat IPC: 0.21553 cumulative IPC: 0.21520 (Simulation time: 0 hr 7 min 36 sec) 
Heartbeat CPU  1 instructions:   60000000 cycles:   69600299 heartbeat IPC: 0.20855 cumulative IPC: 0.21328 (Simulation time: 0 hr 7 min 41 sec) 
Heartbeat CPU  3 instructions:   60000000 cycles:   71588751 heartbeat IPC: 0.21256 cumulative IPC: 0.21412 (Simulation time: 0 hr 7 min 44 sec) 
Heartbeat CPU  0 instructions:   60000000 cycles:   72031767 heartbeat IPC: 0.21590 cumulative IPC: 0.21527 (Simulation time: 0 hr 7 min 45 sec) 
Heartbeat CPU  2 instructions:   78000003 cycles:   72407840 heartbeat IPC: 0.17354 cumulative IPC: 0.38806 (Simulation time: 0 hr 7 min 46 sec) 
Heartbeat CPU  1 instructions:   61000003 cycles:   74268105 heartbeat IPC: 0.21423 cumulative IPC: 0.21337 (Simulation time: 0 hr 7 min 50 sec) 
Heartbeat CPU  3 instructions:   61000003 cycles:   76362570 heartbeat IPC: 0.20948 cumulative IPC: 0.21369 (Simulation time: 0 hr 7 min 54 sec) 
Heartbeat CPU  0 instructions:   61000001 cycles:   76767974 heartbeat IPC: 0.21114 cumulative IPC: 0.21489 (Simulation time: 0 hr 7 min 54 sec) 
Heartbeat CPU  2 instructions:   79000000 cycles:   78282316 heartbeat IPC: 0.17023 cumulative IPC: 0.36378 (Simulation time: 0 hr 7 min 57 sec) 
Heartbeat CPU  1 instructions:   62000002 cycles:   78928398 heartbeat IPC: 0.21458 cumulative IPC: 0.21348 (Simulation time: 0 hr 7 min 58 sec) 
Heartbeat CPU  3 instructions:   62000002 cycles:   81006329 heartbeat IPC: 0.21534 cumulative IPC: 0.21383 (Simulation time: 0 hr 8 min 2 sec) 
Heartbeat CPU  0 instructions:   62000001 cycles:   81384037 heartbeat IPC: 0.21663 cumulative IPC: 0.21503 (Simulation time: 0 hr 8 min 3 sec) 
Heartbeat CPU  0 instructions:   63000001 cycles:   82460407 heartbeat IPC: 0.92905 cumulative IPC: 0.22854 (Simulation time: 0 hr 8 min 6 sec) 
Heartbeat CPU  0 instructions:   64000000 cycles:   83024156 heartbeat IPC: 1.77384 cumulative IPC: 0.24371 (Simulation time: 0 hr 8 min 8 sec) 
Heartbeat CPU  1 instructions:   63000003 cycles:   83594586 heartbeat IPC: 0.21431 cumulative IPC: 0.21354 (Simulation time: 0 hr 8 min 11 sec) 
Heartbeat CPU  0 instructions:   65000000 cycles:   83676060 heartbeat IPC: 1.53397 cumulative IPC: 0.25818 (Simulation time: 0 hr 8 min 11 sec) 
Heartbeat CPU  2 instructions:   80000000 cycles:   84097983 heartbeat IPC: 0.17195 cumulative IPC: 0.34472 (Simulation time: 0 hr 8 min 12 sec) 
Heartbeat CPU  0 instructions:   66000003 cycles:   84262666 heartbeat IPC: 1.70473 cumulative IPC: 0.27264 (Simulation time: 0 hr 8 min 13 sec) 
Heartbeat CPU  0 instructions:   67000001 cycles:   84809099 heartbeat IPC: 1.83005 cumulative IPC: 0.28701 (Simulation time: 0 hr 8 min 15 sec) 
Heartbeat CPU  0 instructions:   68000000 cycles:   85347195 heartbeat IPC: 1.85840 cumulative IPC: 0.30116 (Simulation time: 0 hr 8 min 17 sec) 
Heartbeat CPU  3 instructions:   63000001 cycles:   85661678 heartbeat IPC: 0.21481 cumulative IPC: 0.21390 (Simulation time: 0 hr 8 min 18 sec) 
Heartbeat CPU  1 instructions:   64000000 cycles:   88209058 heartbeat IPC: 0.21671 cumulative IPC: 0.21378 (Simulation time: 0 hr 8 min 23 sec) 
Heartbeat CPU  0 instructions:   69000003 cycles:   89357896 heartbeat IPC: 0.24933 cumulative IPC: 0.29790 (Simulation time: 0 hr 8 min 25 sec) 
Heartbeat CPU  2 instructions:   81000000 cycles:   90023630 heartbeat IPC: 0.16876 cumulative IPC: 0.32854 (Simulation time: 0 hr 8 min 27 sec) 
Heartbeat CPU  3 instructions:   64000000 cycles:   90233118 heartbeat IPC: 0.21875 cumulative IPC: 0.21424 (Simulation time: 0 hr 8 min 27 sec) 
Heartbeat CPU  1 instructions:   65000000 cycles:   92854554 heartbeat IPC: 0.21526 cumulative IPC: 0.21388 (Simulation time: 0 hr 8 min 32 sec) 
Heartbeat CPU  0 instructions:   70000001 cycles:   93995096 heartbeat IPC: 0.21565 cumulative IPC: 0.29233 (Simulation time: 0 hr 8 min 34 sec) 
Heartbeat CPU  3 instructions:   65000003 cycles:   94912666 heartbeat IPC: 0.21370 cumulative IPC: 0.21421 (Simulation time: 0 hr 8 min 36 sec) 
Heartbeat CPU  2 instructions:   82000000 cycles:   95890825 heartbeat IPC: 0.17044 cumulative IPC: 0.31535 (Simulation time: 0 hr 8 min 38 sec) 
Heartbeat CPU  1 instructions:   66000002 cycles:   95994595 heartbeat IPC: 0.31847 cumulative IPC: 0.21854 (Simulation time: 0 hr 8 min 39 sec) 
Heartbeat CPU  1 instructions:   67000003 cycles:   96561020 heartbeat IPC: 1.76546 cumulative IPC: 0.23089 (Simulation time: 0 hr 8 min 41 sec) 
Heartbeat CPU  1 instructions:   68000000 cycles:   97112755 heartbeat IPC: 1.81246 cumulative IPC: 0.24309 (Simulation time: 0 hr 8 min 43 sec) 
Heartbeat CPU  1 instructions:   69000003 cycles:   97649673 heartbeat IPC: 1.86249 cumulative IPC: 0.25515 (Simulation time: 0 hr 8 min 45 sec) 
Heartbeat CPU  0 instructions:   71000000 cycles:   98529336 heartbeat IPC: 0.22054 cumulative IPC: 0.28786 (Simulation time: 0 hr 8 min 48 sec) 
Heartbeat CPU  3 instructions:   66000002 cycles:   99423129 heartbeat IPC: 0.22171 cumulative IPC: 0.21467 (Simulation time: 0 hr 8 min 49 sec) 
Heartbeat CPU  1 instructions:   70000001 cycles:  100035069 heartbeat IPC: 0.41922 cumulative IPC: 0.26041 (Simulation time: 0 hr 8 min 50 sec) 
Heartbeat CPU  2 instructions:   83000002 cycles:  101785949 heartbeat IPC: 0.16963 cumulative IPC: 0.30407 (Simulation time: 0 hr 8 min 54 sec) 
Heartbeat CPU  0 instructions:   72000000 cycles:  103054551 heartbeat IPC: 0.22098 cumulative IPC: 0.28396 (Simulation time: 0 hr 8 min 56 sec) 
Heartbeat CPU  3 instructions:   67000003 cycles:  104045263 heartbeat IPC: 0.21635 cumulative IPC: 0.21476 (Simulation time: 0 hr 8 min 58 sec) 
Heartbeat CPU  1 instructions:   71000000 cycles:  104651040 heartbeat IPC: 0.21664 cumulative IPC: 0.25785 (Simulation time: 0 hr 9 min 0 sec) 
Heartbeat CPU  2 instructions:   84000000 cycles:  106315444 heartbeat IPC: 0.22077 cumulative IPC: 0.29940 (Simulation time: 0 hr 9 min 3 sec) 
Heartbeat CPU  0 instructions:   73000001 cycles:  107692407 heartbeat IPC: 0.21562 cumulative IPC: 0.28010 (Simulation time: 0 hr 9 min 5 sec) 
Heartbeat CPU  3 instructions:   68000000 cycles:  108554737 heartbeat IPC: 0.22175 cumulative IPC: 0.21514 (Simulation time: 0 hr 9 min 7 sec) 
Heartbeat CPU  1 instructions:   72000000 cycles:  109245373 heartbeat IPC: 0.21766 cumulative IPC: 0.25564 (Simulation time: 0 hr 9 min 9 sec) 
Heartbeat CPU  0 instructions:   74000003 cycles:  110068528 heartbeat IPC: 0.42085 cumulative IPC: 0.28406 (Simulation time: 0 hr 9 min 11 sec) 
Heartbeat CPU  2 instructions:   85000000 cycles:  110868327 heartbeat IPC: 0.21964 cumulative IPC: 0.29514 (Simulation time: 0 hr 9 min 13 sec) 
Heartbeat CPU  3 instructions:   69000001 cycles:  113232149 heartbeat IPC: 0.21379 cumulative IPC: 0.21507 (Simulation time: 0 hr 9 min 17 sec) 
Heartbeat CPU  0 instructions:   75000000 cycles:  113509131 heartbeat IPC: 0.29065 cumulative IPC: 0.28431 (Simulation time: 0 hr 9 min 18 sec) 
Heartbeat CPU  1 instructions:   73000002 cycles:  113873561 heartbeat IPC: 0.21607 cumulative IPC: 0.25357 (Simulation time: 0 hr 9 min 19 sec) 
Heartbeat CPU  2 instructions:   86000001 cycles:  116607263 heartbeat IPC: 0.17425 cumulative IPC: 0.28752 (Simulation time: 0 hr 9 min 24 sec) 
Heartbeat CPU  3 instructions:   70000003 cycles:  117891152 heartbeat IPC: 0.21464 cumulative IPC: 0.21505 (Simulation time: 0 hr 9 min 27 sec) 
Heartbeat CPU  0 instructions:   76000000 cycles:  118278589 heartbeat IPC: 0.20967 cumulative IPC: 0.28047 (Simulation time: 0 hr 9 min 27 sec) 
Heartbeat CPU  1 instructions:   74000000 cycles:  118357438 heartbeat IPC: 0.22302 cumulative IPC: 0.25209 (Simulation time: 0 hr 9 min 27 sec) 
Heartbeat CPU  3 instructions:   71000000 cycles:  122497859 heartbeat IPC: 0.21707 cumulative IPC: 0.21515 (Simulation time: 0 hr 9 min 35 sec) 
Heartbeat CPU  2 instructions:   87000002 cycles:  122538999 heartbeat IPC: 0.16858 cumulative IPC: 0.28024 (Simulation time: 0 hr 9 min 36 sec) 
Heartbeat CPU  0 instructions:   77000000 cycles:  122965030 heartbeat IPC: 0.21338 cumulative IPC: 0.27724 (Simulation time: 0 hr 9 min 36 sec) 
Heartbeat CPU  1 instructions:   75000000 cycles:  122970195 heartbeat IPC: 0.21679 cumulative IPC: 0.25042 (Simulation time: 0 hr 9 min 36 sec) 
Heartbeat CPU  3 instructions:   72000000 cycles:  127122498 heartbeat IPC: 0.21623 cumulative IPC: 0.21520 (Simulation time: 0 hr 9 min 45 sec) 
Heartbeat CPU  2 instructions:   88000000 cycles:  127286411 heartbeat IPC: 0.21064 cumulative IPC: 0.27700 (Simulation time: 0 hr 9 min 45 sec) 
Heartbeat CPU  1 instructions:   76000000 cycles:  127561374 heartbeat IPC: 0.21781 cumulative IPC: 0.24895 (Simulation time: 0 hr 9 min 46 sec) 
Heartbeat CPU  0 instructions:   78000002 cycles:  127648601 heartbeat IPC: 0.21351 cumulative IPC: 0.27432 (Simulation time: 0 hr 9 min 46 sec) 
Heartbeat CPU  3 instructions:   73000003 cycles:  131813501 heartbeat IPC: 0.21317 cumulative IPC: 0.21511 (Simulation time: 0 hr 9 min 54 sec) 
Heartbeat CPU  1 instructions:   77000001 cycles:  132142644 heartbeat IPC: 0.21828 cumulative IPC: 0.24763 (Simulation time: 0 hr 9 min 54 sec) 
Heartbeat CPU  0 instructions:   79000003 cycles:  132240711 heartbeat IPC: 0.21777 cumulative IPC: 0.27189 (Simulation time: 0 hr 9 min 55 sec) 
Heartbeat CPU  2 instructions:   89000000 cycles:  132565808 heartbeat IPC: 0.18942 cumulative IPC: 0.27267 (Simulation time: 0 hr 9 min 55 sec) 
Heartbeat CPU  3 instructions:   74000000 cycles:  136366881 heartbeat IPC: 0.21962 cumulative IPC: 0.21529 (Simulation time: 0 hr 10 min 3 sec) 
Heartbeat CPU  1 instructions:   78000003 cycles:  136937750 heartbeat IPC: 0.20855 cumulative IPC: 0.24595 (Simulation time: 0 hr 10 min 4 sec) 
Heartbeat CPU  0 instructions:   80000000 cycles:  136972398 heartbeat IPC: 0.21134 cumulative IPC: 0.26931 (Simulation time: 0 hr 10 min 4 sec) 
Heartbeat CPU  2 instructions:   90000001 cycles:  138229444 heartbeat IPC: 0.17657 cumulative IPC: 0.26784 (Simulation time: 0 hr 10 min 6 sec) 
Heartbeat CPU  3 instructions:   75000000 cycles:  140997842 heartbeat IPC: 0.21594 cumulative IPC: 0.21532 (Simulation time: 0 hr 10 min 12 sec) 
Heartbeat CPU  1 instructions:   79000003 cycles:  141684232 heartbeat IPC: 0.21068 cumulative IPC: 0.24451 (Simulation time: 0 hr 10 min 13 sec) 
Heartbeat CPU  0 instructions:   81000003 cycles:  141705790 heartbeat IPC: 0.21127 cumulative IPC: 0.26695 (Simulation time: 0 hr 10 min 13 sec) 
Heartbeat CPU  2 instructions:   91000003 cycles:  143951752 heartbeat IPC: 0.17476 cumulative IPC: 0.26334 (Simulation time: 0 hr 10 min 17 sec) 
Heartbeat CPU  3 instructions:   76000000 cycles:  145759206 heartbeat IPC: 0.21002 cumulative IPC: 0.21511 (Simulation time: 0 hr 10 min 21 sec) 
Heartbeat CPU  1 instructions:   80000000 cycles:  146295635 heartbeat IPC: 0.21685 cumulative IPC: 0.24345 (Simulation time: 0 hr 10 min 22 sec) 
Heartbeat CPU  0 instructions:   82000001 cycles:  146324432 heartbeat IPC: 0.21651 cumulative IPC: 0.26502 (Simulation time: 0 hr 10 min 22 sec) 
Heartbeat CPU  2 instructions:   92000000 cycles:  149786003 heartbeat IPC: 0.17140 cumulative IPC: 0.25902 (Simulation time: 0 hr 10 min 28 sec) 
Heartbeat CPU  3 instructions:   77000000 cycles:  150474420 heartbeat IPC: 0.21208 cumulative IPC: 0.21499 (Simulation time: 0 hr 10 min 30 sec) 
Heartbeat CPU  0 instructions:   83000000 cycles:  150974490 heartbeat IPC: 0.21505 cumulative IPC: 0.26317 (Simulation time: 0 hr 10 min 31 sec) 
Heartbeat CPU  1 instructions:   81000003 cycles:  151018405 heartbeat IPC: 0.21174 cumulative IPC: 0.24226 (Simulation time: 0 hr 10 min 31 sec) 
Heartbeat CPU  3 instructions:   78000000 cycles:  155133740 heartbeat IPC: 0.21462 cumulative IPC: 0.21498 (Simulation time: 0 hr 10 min 39 sec) 
Heartbeat CPU  2 instructions:   93000001 cycles:  155567746 heartbeat IPC: 0.17296 cumulative IPC: 0.25520 (Simulation time: 0 hr 10 min 40 sec) 
Heartbeat CPU  0 instructions:   84000000 cycles:  155651545 heartbeat IPC: 0.21381 cumulative IPC: 0.26139 (Simulation time: 0 hr 10 min 40 sec) 
Heartbeat CPU  1 instructions:   82000000 cycles:  155725511 heartbeat IPC: 0.21244 cumulative IPC: 0.24118 (Simulation time: 0 hr 10 min 40 sec) 
Heartbeat CPU  3 instructions:   79000000 cycles:  159870471 heartbeat IPC: 0.21112 cumulative IPC: 0.21484 (Simulation time: 0 hr 10 min 48 sec) 
Heartbeat CPU  1 instructions:   83000001 cycles:  160336457 heartbeat IPC: 0.21688 cumulative IPC: 0.24035 (Simulation time: 0 hr 10 min 49 sec) 
Heartbeat CPU  0 instructions:   85000000 cycles:  160488227 heartbeat IPC: 0.20675 cumulative IPC: 0.25943 (Simulation time: 0 hr 10 min 49 sec) 
Heartbeat CPU  2 instructions:   94000002 cycles:  161296169 heartbeat IPC: 0.17457 cumulative IPC: 0.25179 (Simulation time: 0 hr 10 min 50 sec) 
Heartbeat CPU  3 instructions:   80000000 cycles:  164562970 heartbeat IPC: 0.21311 cumulative IPC: 0.21479 (Simulation time: 0 hr 10 min 57 sec) 
Heartbeat CPU  0 instructions:   86000003 cycles:  165071451 heartbeat IPC: 0.21819 cumulative IPC: 0.25808 (Simulation time: 0 hr 10 min 58 sec) 
Heartbeat CPU  1 instructions:   84000000 cycles:  165199719 heartbeat IPC: 0.20562 cumulative IPC: 0.23914 (Simulation time: 0 hr 10 min 58 sec) 
Heartbeat CPU  2 instructions:   95000001 cycles:  167055809 heartbeat IPC: 0.17362 cumulative IPC: 0.24861 (Simulation time: 0 hr 11 min 1 sec) 
Heartbeat CPU  3 instructions:   81000003 cycles:  169286527 heartbeat IPC: 0.21171 cumulative IPC: 0.21468 (Simulation time: 0 hr 11 min 6 sec) 
Heartbeat CPU  0 instructions:   87000003 cycles:  169883029 heartbeat IPC: 0.20783 cumulative IPC: 0.25640 (Simulation time: 0 hr 11 min 7 sec) 
Heartbeat CPU  1 instructions:   85000002 cycles:  169926272 heartbeat IPC: 0.21157 cumulative IPC: 0.23824 (Simulation time: 0 hr 11 min 7 sec) 
Heartbeat CPU  2 instructions:   96000000 cycles:  172773470 heartbeat IPC: 0.17490 cumulative IPC: 0.24575 (Simulation time: 0 hr 11 min 12 sec) 
Heartbeat CPU  3 instructions:   82000003 cycles:  173968451 heartbeat IPC: 0.21359 cumulative IPC: 0.21465 (Simulation time: 0 hr 11 min 15 sec) 
Heartbeat CPU  0 instructions:   88000000 cycles:  174659169 heartbeat IPC: 0.20937 cumulative IPC: 0.25489 (Simulation time: 0 hr 11 min 16 sec) 
Heartbeat CPU  1 instructions:   86000003 cycles:  174691077 heartbeat IPC: 0.20987 cumulative IPC: 0.23733 (Simulation time: 0 hr 11 min 16 sec) 
Heartbeat CPU  2 instructions:   97000000 cycles:  178458367 heartbeat IPC: 0.17590 cumulative IPC: 0.24315 (Simulation time: 0 hr 11 min 23 sec) 
Heartbeat CPU  3 instructions:   83000000 cycles:  178603557 heartbeat IPC: 0.21574 cumulative IPC: 0.21468 (Simulation time: 0 hr 11 min 24 sec) 
Heartbeat CPU  0 instructions:   89000001 cycles:  179235540 heartbeat IPC: 0.21851 cumulative IPC: 0.25381 (Simulation time: 0 hr 11 min 25 sec) 
Heartbeat CPU  1 instructions:   87000002 cycles:  179421402 heartbeat IPC: 0.21140 cumulative IPC: 0.23653 (Simulation time: 0 hr 11 min 25 sec) 
Heartbeat CPU  3 instructions:   84000000 cycles:  183181967 heartbeat IPC: 0.21842 cumulative IPC: 0.21479 (Simulation time: 0 hr 11 min 33 sec) 
Heartbeat CPU  0 instructions:   90000000 cycles:  183901531 heartbeat IPC: 0.21432 cumulative IPC: 0.25265 (Simulation time: 0 hr 11 min 34 sec) 
Heartbeat CPU  2 instructions:   98000003 cycles:  183927003 heartbeat IPC: 0.18286 cumulative IPC: 0.24107 (Simulation time: 0 hr 11 min 34 sec) 
Heartbeat CPU  1 instructions:   88000000 cycles:  183998090 heartbeat IPC: 0.21850 cumulative IPC: 0.23601 (Simulation time: 0 hr 11 min 34 sec) 
Heartbeat CPU  3 instructions:   85000002 cycles:  187994823 heartbeat IPC: 0.20778 cumulative IPC: 0.21458 (Simulation time: 0 hr 11 min 42 sec) 
Heartbeat CPU  1 instructions:   89000000 cycles:  188539387 heartbeat IPC: 0.22020 cumulative IPC: 0.23557 (Simulation time: 0 hr 11 min 43 sec) 
Heartbeat CPU  0 instructions:   91000002 cycles:  188542240 heartbeat IPC: 0.21548 cumulative IPC: 0.25159 (Simulation time: 0 hr 11 min 43 sec) 
Heartbeat CPU  2 instructions:   99000000 cycles:  189651908 heartbeat IPC: 0.17467 cumulative IPC: 0.23875 (Simulation time: 0 hr 11 min 45 sec) 
Heartbeat CPU  3 instructions:   86000003 cycles:  192638858 heartbeat IPC: 0.21533 cumulative IPC: 0.21460 (Simulation time: 0 hr 11 min 51 sec) 
Heartbeat CPU  1 instructions:   90000000 cycles:  193190494 heartbeat IPC: 0.21500 cumulative IPC: 0.23500 (Simulation time: 0 hr 11 min 52 sec) 
Heartbeat CPU  0 instructions:   92000000 cycles:  193306190 heartbeat IPC: 0.20991 cumulative IPC: 0.25041 (Simulation time: 0 hr 11 min 52 sec) 
*** Reached end of trace for Core: 2 Repeating trace: /data3/STREAMING/traces/streaming_phase1_core2.trace.xz
Heartbeat CPU  2 instructions:  100000000 cycles:  195239747 heartbeat IPC: 0.17896 cumulative IPC: 0.23678 (Simulation time: 0 hr 11 min 56 sec) 
Heartbeat CPU  2 instructions:  101000001 cycles:  197143152 heartbeat IPC: 0.52537 cumulative IPC: 0.23998 (Simulation time: 0 hr 12 min 1 sec) 
Heartbeat CPU  3 instructions:   87000001 cycles:  197332499 heartbeat IPC: 0.21305 cumulative IPC: 0.21456 (Simulation time: 0 hr 12 min 1 sec) 
Heartbeat CPU  1 instructions:   91000000 cycles:  197856382 heartbeat IPC: 0.21432 cumulative IPC: 0.23444 (Simulation time: 0 hr 12 min 3 sec) 
Heartbeat CPU  0 instructions:   93000000 cycles:  198025418 heartbeat IPC: 0.21190 cumulative IPC: 0.24935 (Simulation time: 0 hr 12 min 3 sec) 
Heartbeat CPU  2 instructions:  102000003 cycles:  199080935 heartbeat IPC: 0.51605 cumulative IPC: 0.24307 (Simulation time: 0 hr 12 min 5 sec) 
Heartbeat CPU  2 instructions:  103000001 cycles:  200941474 heartbeat IPC: 0.53748 cumulative IPC: 0.24619 (Simulation time: 0 hr 12 min 10 sec) 
Heartbeat CPU  3 instructions:   88000000 cycles:  202086783 heartbeat IPC: 0.21034 cumulative IPC: 0.21445 (Simulation time: 0 hr 12 min 13 sec) 
Heartbeat CPU  1 instructions:   92000000 cycles:  202497273 heartbeat IPC: 0.21548 cumulative IPC: 0.23394 (Simulation time: 0 hr 12 min 14 sec) 
Heartbeat CPU  0 instructions:   94000000 cycles:  202749401 heartbeat IPC: 0.21169 cumulative IPC: 0.24835 (Simulation time: 0 hr 12 min 14 sec) 
Heartbeat CPU  2 instructions:  104000000 cycles:  202887655 heartbeat IPC: 0.51383 cumulative IPC: 0.24913 (Simulation time: 0 hr 12 min 15 sec) 
Heartbeat CPU  2 instructions:  105000001 cycles:  204767537 heartbeat IPC: 0.53195 cumulative IPC: 0.25210 (Simulation time: 0 hr 12 min 19 sec) 
Heartbeat CPU  2 instructions:  106000002 cycles:  206403605 heartbeat IPC: 0.61122 cumulative IPC: 0.25534 (Simulation time: 0 hr 12 min 23 sec) 
Heartbeat CPU  3 instructions:   89000003 cycles:  206740538 heartbeat IPC: 0.21488 cumulative IPC: 0.21446 (Simulation time: 0 hr 12 min 24 sec) 
Heartbeat CPU  1 instructions:   93000001 cycles:  207303299 heartbeat IPC: 0.20807 cumulative IPC: 0.23326 (Simulation time: 0 hr 12 min 25 sec) 
Heartbeat CPU  0 instructions:   95000000 cycles:  207476292 heartbeat IPC: 0.21156 cumulative IPC: 0.24739 (Simulation time: 0 hr 12 min 25 sec) 
Heartbeat CPU  3 instructions:   90000003 cycles:  211402512 heartbeat IPC: 0.21450 cumulative IPC: 0.21446 (Simulation time: 0 hr 12 min 33 sec) 
Heartbeat CPU  2 instructions:  107000003 cycles:  211768004 heartbeat IPC: 0.18641 cumulative IPC: 0.25336 (Simulation time: 0 hr 12 min 34 sec) 
Heartbeat CPU  1 instructions:   94000003 cycles:  211998751 heartbeat IPC: 0.21297 cumulative IPC: 0.23275 (Simulation time: 0 hr 12 min 34 sec) 
Heartbeat CPU  0 instructions:   96000000 cycles:  212138033 heartbeat IPC: 0.21451 cumulative IPC: 0.24657 (Simulation time: 0 hr 12 min 34 sec) 
Heartbeat CPU  3 instructions:   91000000 cycles:  216075825 heartbeat IPC: 0.21398 cumulative IPC: 0.21445 (Simulation time: 0 hr 12 min 42 sec) 
Heartbeat CPU  1 instructions:   95000002 cycles:  216663212 heartbeat IPC: 0.21439 cumulative IPC: 0.23230 (Simulation time: 0 hr 12 min 43 sec) 
Heartbeat CPU  0 instructions:   97000003 cycles:  216778025 heartbeat IPC: 0.21552 cumulative IPC: 0.24582 (Simulation time: 0 hr 12 min 44 sec) 
Heartbeat CPU  2 instructions:  108000000 cycles:  217304929 heartbeat IPC: 0.18061 cumulative IPC: 0.25126 (Simulation time: 0 hr 12 min 45 sec) 
Heartbeat CPU  3 instructions:   92000000 cycles:  220754696 heartbeat IPC: 0.21373 cumulative IPC: 0.21443 (Simulation time: 0 hr 12 min 51 sec) 
Heartbeat CPU  1 instructions:   96000000 cycles:  221259006 heartbeat IPC: 0.21759 cumulative IPC: 0.23195 (Simulation time: 0 hr 12 min 52 sec) 
Heartbeat CPU  0 instructions:   98000002 cycles:  221527688 heartbeat IPC: 0.21054 cumulative IPC: 0.24496 (Simulation time: 0 hr 12 min 53 sec) 
Heartbeat CPU  2 instructions:  109000003 cycles:  223028010 heartbeat IPC: 0.17473 cumulative IPC: 0.24904 (Simulation time: 0 hr 12 min 56 sec) 
Heartbeat CPU  3 instructions:   93000000 cycles:  225475844 heartbeat IPC: 0.21181 cumulative IPC: 0.21437 (Simulation time: 0 hr 13 min 0 sec) 
Heartbeat CPU  1 instructions:   97000003 cycles:  225869038 heartbeat IPC: 0.21692 cumulative IPC: 0.23161 (Simulation time: 0 hr 13 min 1 sec) 
Heartbeat CPU  0 instructions:   99000000 cycles:  226416960 heartbeat IPC: 0.20453 cumulative IPC: 0.24398 (Simulation time: 0 hr 13 min 2 sec) 
Heartbeat CPU  2 instructions:  110000002 cycles:  228855246 heartbeat IPC: 0.17161 cumulative IPC: 0.24682 (Simulation time: 0 hr 13 min 7 sec) 
Heartbeat CPU  3 instructions:   94000000 cycles:  230149229 heartbeat IPC: 0.21398 cumulative IPC: 0.21436 (Simulation time: 0 hr 13 min 9 sec) 
Heartbeat CPU  1 instructions:   98000000 cycles:  230629092 heartbeat IPC: 0.21008 cumulative IPC: 0.23111 (Simulation time: 0 hr 13 min 10 sec) 
*** Reached end of trace for Core: 0 Repeating trace: /data3/STREAMING/traces/streaming_phase1_core0.trace.xz
Heartbeat CPU  0 instructions:  100000000 cycles:  231152446 heartbeat IPC: 0.21117 cumulative IPC: 0.24322 (Simulation time: 0 hr 13 min 12 sec) 
Heartbeat CPU  2 instructions:  111000001 cycles:  233044653 heartbeat IPC: 0.23870 cumulative IPC: 0.24666 (Simulation time: 0 hr 13 min 15 sec) 
Heartbeat CPU  3 instructions:   95000000 cycles:  234812486 heartbeat IPC: 0.21444 cumulative IPC: 0.21436 (Simulation time: 0 hr 13 min 20 sec) 
Heartbeat CPU  2 instructions:  112000000 cycles:  234873707 heartbeat IPC: 0.54673 cumulative IPC: 0.24928 (Simulation time: 0 hr 13 min 20 sec) 
Heartbeat CPU  1 instructions:   99000000 cycles:  235444192 heartbeat IPC: 0.20768 cumulative IPC: 0.23057 (Simulation time: 0 hr 13 min 21 sec) 
Heartbeat CPU  0 instructions:  101000001 cycles:  235774074 heartbeat IPC: 0.21637 cumulative IPC: 0.24263 (Simulation time: 0 hr 13 min 22 sec) 
Heartbeat CPU  2 instructions:  113000002 cycles:  236691401 heartbeat IPC: 0.55015 cumulative IPC: 0.25187 (Simulation time: 0 hr 13 min 24 sec) 
Heartbeat CPU  2 instructions:  114000001 cycles:  238616293 heartbeat IPC: 0.51951 cumulative IPC: 0.25429 (Simulation time: 0 hr 13 min 29 sec) 
Heartbeat CPU  3 instructions:   96000000 cycles:  239486463 heartbeat IPC: 0.21395 cumulative IPC: 0.21435 (Simulation time: 0 hr 13 min 31 sec) 
*** Reached end of trace for Core: 1 Repeating trace: /data3/STREAMING/traces/streaming_phase1_core1.trace.xz
Heartbeat CPU  1 instructions:  100000000 cycles:  240066919 heartbeat IPC: 0.21632 cumulative IPC: 0.23026 (Simulation time: 0 hr 13 min 33 sec) 
Heartbeat CPU  0 instructions:  102000000 cycles:  240331440 heartbeat IPC: 0.21942 cumulative IPC: 0.24214 (Simulation time: 0 hr 13 min 33 sec) 
Heartbeat CPU  2 instructions:  115000002 cycles:  240485925 heartbeat IPC: 0.53487 cumulative IPC: 0.25673 (Simulation time: 0 hr 13 min 34 sec) 
Heartbeat CPU  2 instructions:  116000000 cycles:  242295897 heartbeat IPC: 0.55249 cumulative IPC: 0.25920 (Simulation time: 0 hr 13 min 38 sec) 
Heartbeat CPU  2 instructions:  117000000 cycles:  244124225 heartbeat IPC: 0.54695 cumulative IPC: 0.26161 (Simulation time: 0 hr 13 min 42 sec) 
Heartbeat CPU  3 instructions:   97000002 cycles:  244189568 heartbeat IPC: 0.21263 cumulative IPC: 0.21432 (Simulation time: 0 hr 13 min 43 sec) 
Heartbeat CPU  1 instructions:  101000002 cycles:  244560541 heartbeat IPC: 0.22254 cumulative IPC: 0.23011 (Simulation time: 0 hr 13 min 43 sec) 
Heartbeat CPU  0 instructions:  103000000 cycles:  245051694 heartbeat IPC: 0.21185 cumulative IPC: 0.24149 (Simulation time: 0 hr 13 min 45 sec) 
Heartbeat CPU  2 instructions:  118000000 cycles:  245893713 heartbeat IPC: 0.56514 cumulative IPC: 0.26404 (Simulation time: 0 hr 13 min 47 sec) 
Heartbeat CPU  2 instructions:  119000003 cycles:  247655101 heartbeat IPC: 0.56774 cumulative IPC: 0.26645 (Simulation time: 0 hr 13 min 51 sec) 
Heartbeat CPU  3 instructions:   98000003 cycles:  248790674 heartbeat IPC: 0.21734 cumulative IPC: 0.21438 (Simulation time: 0 hr 13 min 54 sec) 
Heartbeat CPU  1 instructions:  102000001 cycles:  249158108 heartbeat IPC: 0.21751 cumulative IPC: 0.22985 (Simulation time: 0 hr 13 min 55 sec) 
Heartbeat CPU  2 instructions:  120000000 cycles:  249361219 heartbeat IPC: 0.58612 cumulative IPC: 0.26889 (Simulation time: 0 hr 13 min 55 sec) 
Heartbeat CPU  0 instructions:  104000000 cycles:  249610376 heartbeat IPC: 0.21936 cumulative IPC: 0.24104 (Simulation time: 0 hr 13 min 56 sec) 
Heartbeat CPU  2 instructions:  121000003 cycles:  251112487 heartbeat IPC: 0.57102 cumulative IPC: 0.27123 (Simulation time: 0 hr 14 min 0 sec) 
Heartbeat CPU  2 instructions:  122000001 cycles:  253073994 heartbeat IPC: 0.50981 cumulative IPC: 0.27329 (Simulation time: 0 hr 14 min 4 sec) 
Heartbeat CPU  3 instructions:   99000002 cycles:  253646663 heartbeat IPC: 0.20593 cumulative IPC: 0.21420 (Simulation time: 0 hr 14 min 6 sec) 
Heartbeat CPU  1 instructions:  103000000 cycles:  253783932 heartbeat IPC: 0.21618 cumulative IPC: 0.22957 (Simulation time: 0 hr 14 min 6 sec) 
Heartbeat CPU  0 instructions:  105000002 cycles:  254218698 heartbeat IPC: 0.21700 cumulative IPC: 0.24055 (Simulation time: 0 hr 14 min 7 sec) 
Heartbeat CPU  2 instructions:  123000001 cycles:  254906271 heartbeat IPC: 0.54577 cumulative IPC: 0.27547 (Simulation time: 0 hr 14 min 9 sec) 
Heartbeat CPU  2 instructions:  124000000 cycles:  256808697 heartbeat IPC: 0.52564 cumulative IPC: 0.27753 (Simulation time: 0 hr 14 min 13 sec) 
Heartbeat CPU  1 instructions:  104000000 cycles:  258324150 heartbeat IPC: 0.22025 cumulative IPC: 0.22939 (Simulation time: 0 hr 14 min 17 sec) 
*** Reached end of trace for Core: 3 Repeating trace: /data3/STREAMING/traces/streaming_phase1_core3.trace.xz
Heartbeat CPU  0 instructions:  106000002 cycles:  258354368 heartbeat IPC: 0.24180 cumulative IPC: 0.24057 (Simulation time: 0 hr 14 min 17 sec) 
Heartbeat CPU  3 instructions:  100000000 cycles:  258596980 heartbeat IPC: 0.20201 cumulative IPC: 0.21394 (Simulation time: 0 hr 14 min 18 sec) 
Heartbeat CPU  2 instructions:  125000001 cycles:  258818244 heartbeat IPC: 0.49763 cumulative IPC: 0.27942 (Simulation time: 0 hr 14 min 18 sec) 
Heartbeat CPU  2 instructions:  126000003 cycles:  260567190 heartbeat IPC: 0.57177 cumulative IPC: 0.28160 (Simulation time: 0 hr 14 min 22 sec) 
Heartbeat CPU  2 instructions:  127000001 cycles:  262309643 heartbeat IPC: 0.57390 cumulative IPC: 0.28375 (Simulation time: 0 hr 14 min 27 sec) 
Heartbeat CPU  0 instructions:  107000001 cycles:  262402181 heartbeat IPC: 0.24705 cumulative IPC: 0.24069 (Simulation time: 0 hr 14 min 27 sec) 
Heartbeat CPU  1 instructions:  105000000 cycles:  262929861 heartbeat IPC: 0.21712 cumulative IPC: 0.22915 (Simulation time: 0 hr 14 min 28 sec) 
Heartbeat CPU  3 instructions:  101000002 cycles:  263258221 heartbeat IPC: 0.21454 cumulative IPC: 0.21395 (Simulation time: 0 hr 14 min 29 sec) 
Heartbeat CPU  2 instructions:  128000000 cycles:  264055452 heartbeat IPC: 0.57280 cumulative IPC: 0.28587 (Simulation time: 0 hr 14 min 31 sec) 
Heartbeat CPU  2 instructions:  129000002 cycles:  265817443 heartbeat IPC: 0.56754 cumulative IPC: 0.28793 (Simulation time: 0 hr 14 min 36 sec) 
Heartbeat CPU  0 instructions:  108000000 cycles:  266866269 heartbeat IPC: 0.22401 cumulative IPC: 0.24038 (Simulation time: 0 hr 14 min 38 sec) 
Heartbeat CPU  1 instructions:  106000002 cycles:  267574516 heartbeat IPC: 0.21530 cumulative IPC: 0.22888 (Simulation time: 0 hr 14 min 40 sec) 
Heartbeat CPU  2 instructions:  130000003 cycles:  267623110 heartbeat IPC: 0.55381 cumulative IPC: 0.28992 (Simulation time: 0 hr 14 min 40 sec) 
Heartbeat CPU  3 instructions:  102000000 cycles:  267924130 heartbeat IPC: 0.21432 cumulative IPC: 0.21396 (Simulation time: 0 hr 14 min 41 sec) 
Heartbeat CPU  2 instructions:  131000000 cycles:  269462321 heartbeat IPC: 0.54371 cumulative IPC: 0.29183 (Simulation time: 0 hr 14 min 44 sec) 
Heartbeat CPU  2 instructions:  132000000 cycles:  271283207 heartbeat IPC: 0.54918 cumulative IPC: 0.29374 (Simulation time: 0 hr 14 min 49 sec) 
Heartbeat CPU  0 instructions:  109000002 cycles:  271449528 heartbeat IPC: 0.21819 cumulative IPC: 0.23996 (Simulation time: 0 hr 14 min 49 sec) 
Heartbeat CPU  1 instructions:  107000002 cycles:  271936589 heartbeat IPC: 0.22925 cumulative IPC: 0.22889 (Simulation time: 0 hr 14 min 51 sec) 
Heartbeat CPU  3 instructions:  103000003 cycles:  272491909 heartbeat IPC: 0.21893 cumulative IPC: 0.21405 (Simulation time: 0 hr 14 min 52 sec) 
Heartbeat CPU  2 instructions:  133000003 cycles:  273065897 heartbeat IPC: 0.56095 cumulative IPC: 0.29566 (Simulation time: 0 hr 14 min 53 sec) 
Heartbeat CPU  2 instructions:  134000002 cycles:  274830614 heartbeat IPC: 0.56666 cumulative IPC: 0.29758 (Simulation time: 0 hr 14 min 58 sec) 
Heartbeat CPU  0 instructions:  110000001 cycles:  276064945 heartbeat IPC: 0.21666 cumulative IPC: 0.23953 (Simulation time: 0 hr 15 min 1 sec) 
Heartbeat CPU  1 instructions:  108000000 cycles:  276490103 heartbeat IPC: 0.21961 cumulative IPC: 0.22872 (Simulation time: 0 hr 15 min 2 sec) 
Heartbeat CPU  2 instructions:  135000000 cycles:  276628773 heartbeat IPC: 0.55612 cumulative IPC: 0.29943 (Simulation time: 0 hr 15 min 2 sec) 
Heartbeat CPU  3 instructions:  104000000 cycles:  277174106 heartbeat IPC: 0.21357 cumulative IPC: 0.21404 (Simulation time: 0 hr 15 min 3 sec) 
Heartbeat CPU  2 instructions:  136000000 cycles:  278521263 heartbeat IPC: 0.52840 cumulative IPC: 0.30115 (Simulation time: 0 hr 15 min 7 sec) 
Heartbeat CPU  0 instructions:  111000001 cycles:  280644641 heartbeat IPC: 0.21836 cumulative IPC: 0.23915 (Simulation time: 0 hr 15 min 11 sec) 
Heartbeat CPU  1 instructions:  109000001 cycles:  281140062 heartbeat IPC: 0.21506 cumulative IPC: 0.22847 (Simulation time: 0 hr 15 min 12 sec) 
Heartbeat CPU  3 instructions:  105000001 cycles:  281885138 heartbeat IPC: 0.21227 cumulative IPC: 0.21401 (Simulation time: 0 hr 15 min 13 sec) 
Heartbeat CPU  2 instructions:  137000000 cycles:  282549990 heartbeat IPC: 0.24822 cumulative IPC: 0.30032 (Simulation time: 0 hr 15 min 15 sec) 
Heartbeat CPU  3 instructions:  106000002 cycles:  283629623 heartbeat IPC: 0.57324 cumulative IPC: 0.21644 (Simulation time: 0 hr 15 min 18 sec) 
Heartbeat CPU  0 instructions:  112000000 cycles:  285240653 heartbeat IPC: 0.21758 cumulative IPC: 0.23877 (Simulation time: 0 hr 15 min 21 sec) 
Heartbeat CPU  1 instructions:  110000003 cycles:  285950771 heartbeat IPC: 0.20787 cumulative IPC: 0.22809 (Simulation time: 0 hr 15 min 22 sec) 
Heartbeat CPU  3 instructions:  107000000 cycles:  288072683 heartbeat IPC: 0.22507 cumulative IPC: 0.21658 (Simulation time: 0 hr 15 min 26 sec) 
Heartbeat CPU  2 instructions:  138000002 cycles:  288099510 heartbeat IPC: 0.18020 cumulative IPC: 0.29778 (Simulation time: 0 hr 15 min 26 sec) 
Heartbeat CPU  0 instructions:  113000002 cycles:  289777049 heartbeat IPC: 0.22044 cumulative IPC: 0.23846 (Simulation time: 0 hr 15 min 30 sec) 
Heartbeat CPU  1 instructions:  111000003 cycles:  290571529 heartbeat IPC: 0.21641 cumulative IPC: 0.22789 (Simulation time: 0 hr 15 min 31 sec) 
Heartbeat CPU  3 instructions:  108000000 cycles:  292641904 heartbeat IPC: 0.21886 cumulative IPC: 0.21662 (Simulation time: 0 hr 15 min 35 sec) 
Heartbeat CPU  2 instructions:  139000001 cycles:  293819897 heartbeat IPC: 0.17481 cumulative IPC: 0.29515 (Simulation time: 0 hr 15 min 38 sec) 
Heartbeat CPU  0 instructions:  114000001 cycles:  294444609 heartbeat IPC: 0.21424 cumulative IPC: 0.23804 (Simulation time: 0 hr 15 min 39 sec) 
Heartbeat CPU  1 instructions:  112000000 cycles:  295244422 heartbeat IPC: 0.21400 cumulative IPC: 0.22765 (Simulation time: 0 hr 15 min 41 sec) 
Heartbeat CPU  3 instructions:  109000000 cycles:  297305034 heartbeat IPC: 0.21445 cumulative IPC: 0.21658 (Simulation time: 0 hr 15 min 45 sec) 
Heartbeat CPU  0 instructions:  115000001 cycles:  299044428 heartbeat IPC: 0.21740 cumulative IPC: 0.23769 (Simulation time: 0 hr 15 min 48 sec) 
Heartbeat CPU  2 instructions:  140000000 cycles:  299354334 heartbeat IPC: 0.18069 cumulative IPC: 0.29284 (Simulation time: 0 hr 15 min 49 sec) 
Heartbeat CPU  1 instructions:  113000001 cycles:  299955257 heartbeat IPC: 0.21228 cumulative IPC: 0.22738 (Simulation time: 0 hr 15 min 50 sec) 
Heartbeat CPU  3 instructions:  110000000 cycles:  302004598 heartbeat IPC: 0.21279 cumulative IPC: 0.21652 (Simulation time: 0 hr 15 min 54 sec) 
Heartbeat CPU  0 instructions:  116000000 cycles:  303683411 heartbeat IPC: 0.21556 cumulative IPC: 0.23732 (Simulation time: 0 hr 15 min 57 sec) 
Heartbeat CPU  1 instructions:  114000003 cycles:  304639051 heartbeat IPC: 0.21350 cumulative IPC: 0.22715 (Simulation time: 0 hr 15 min 59 sec) 
Heartbeat CPU  2 instructions:  141000001 cycles:  304979507 heartbeat IPC: 0.17777 cumulative IPC: 0.29052 (Simulation time: 0 hr 16 min 0 sec) 
Heartbeat CPU  3 instructions:  111000001 cycles:  306595554 heartbeat IPC: 0.21782 cumulative IPC: 0.21654 (Simulation time: 0 hr 16 min 3 sec) 
Heartbeat CPU  0 instructions:  117000002 cycles:  308224723 heartbeat IPC: 0.22020 cumulative IPC: 0.23705 (Simulation time: 0 hr 16 min 6 sec) 
Heartbeat CPU  1 instructions:  115000000 cycles:  309373491 heartbeat IPC: 0.21122 cumulative IPC: 0.22689 (Simulation time: 0 hr 16 min 9 sec) 
Heartbeat CPU  2 instructions:  142000000 cycles:  310693328 heartbeat IPC: 0.17501 cumulative IPC: 0.28821 (Simulation time: 0 hr 16 min 11 sec) 
Heartbeat CPU  3 instructions:  112000000 cycles:  311165685 heartbeat IPC: 0.21881 cumulative IPC: 0.21658 (Simulation time: 0 hr 16 min 12 sec) 
Heartbeat CPU  0 instructions:  118000001 cycles:  312818391 heartbeat IPC: 0.21769 cumulative IPC: 0.23674 (Simulation time: 0 hr 16 min 15 sec) 
Heartbeat CPU  1 instructions:  116000000 cycles:  313887053 heartbeat IPC: 0.22155 cumulative IPC: 0.22680 (Simulation time: 0 hr 16 min 18 sec) 
Heartbeat CPU  3 instructions:  113000002 cycles:  315697110 heartbeat IPC: 0.22068 cumulative IPC: 0.21664 (Simulation time: 0 hr 16 min 21 sec) 
Heartbeat CPU  2 instructions:  143000001 cycles:  316465412 heartbeat IPC: 0.17325 cumulative IPC: 0.28593 (Simulation time: 0 hr 16 min 23 sec) 
Heartbeat CPU  0 instructions:  119000002 cycles:  317331228 heartbeat IPC: 0.22159 cumulative IPC: 0.23650 (Simulation time: 0 hr 16 min 24 sec) 
Heartbeat CPU  1 instructions:  117000000 cycles:  318492108 heartbeat IPC: 0.21715 cumulative IPC: 0.22665 (Simulation time: 0 hr 16 min 27 sec) 
Heartbeat CPU  3 instructions:  114000001 cycles:  320348157 heartbeat IPC: 0.21501 cumulative IPC: 0.21662 (Simulation time: 0 hr 16 min 30 sec) 
Heartbeat CPU  0 instructions:  120000000 cycles:  321815946 heartbeat IPC: 0.22298 cumulative IPC: 0.23630 (Simulation time: 0 hr 16 min 33 sec) 
Heartbeat CPU  2 instructions:  144000000 cycles:  322219155 heartbeat IPC: 0.17380 cumulative IPC: 0.28375 (Simulation time: 0 hr 16 min 34 sec) 
Heartbeat CPU  1 instructions:  118000001 cycles:  323028926 heartbeat IPC: 0.22042 cumulative IPC: 0.22656 (Simulation time: 0 hr 16 min 36 sec) 
Heartbeat CPU  3 instructions:  115000003 cycles:  324946079 heartbeat IPC: 0.21749 cumulative IPC: 0.21663 (Simulation time: 0 hr 16 min 40 sec) 
Heartbeat CPU  0 instructions:  121000003 cycles:  326286283 heartbeat IPC: 0.22370 cumulative IPC: 0.23611 (Simulation time: 0 hr 16 min 42 sec) 
Heartbeat CPU  1 instructions:  119000003 cycles:  327520446 heartbeat IPC: 0.22264 cumulative IPC: 0.22650 (Simulation time: 0 hr 16 min 45 sec) 
Heartbeat CPU  2 instructions:  145000003 cycles:  327956362 heartbeat IPC: 0.17430 cumulative IPC: 0.28168 (Simulation time: 0 hr 16 min 46 sec) 
Heartbeat CPU  3 instructions:  116000000 cycles:  329442116 heartbeat IPC: 0.22242 cumulative IPC: 0.21672 (Simulation time: 0 hr 16 min 49 sec) 
Heartbeat CPU  0 instructions:  122000001 cycles:  330834676 heartbeat IPC: 0.21986 cumulative IPC: 0.23587 (Simulation time: 0 hr 16 min 51 sec) 
Heartbeat CPU  1 instructions:  120000000 cycles:  331989452 heartbeat IPC: 0.22376 cumulative IPC: 0.22646 (Simulation time: 0 hr 16 min 54 sec) 
Heartbeat CPU  2 instructions:  146000001 cycles:  333791650 heartbeat IPC: 0.17137 cumulative IPC: 0.27959 (Simulation time: 0 hr 16 min 58 sec) 
Heartbeat CPU  3 instructions:  117000000 cycles:  334040221 heartbeat IPC: 0.21748 cumulative IPC: 0.21673 (Simulation time: 0 hr 16 min 58 sec) 
Heartbeat CPU  0 instructions:  123000000 cycles:  335562901 heartbeat IPC: 0.21150 cumulative IPC: 0.23550 (Simulation time: 0 hr 17 min 1 sec) 
Heartbeat CPU  1 instructions:  121000002 cycles:  336472703 heartbeat IPC: 0.22305 cumulative IPC: 0.22641 (Simulation time: 0 hr 17 min 3 sec) 
Heartbeat CPU  3 instructions:  118000002 cycles:  338655332 heartbeat IPC: 0.21668 cumulative IPC: 0.21673 (Simulation time: 0 hr 17 min 7 sec) 
Heartbeat CPU  2 instructions:  147000002 cycles:  339603744 heartbeat IPC: 0.17206 cumulative IPC: 0.27760 (Simulation time: 0 hr 17 min 9 sec) 
Heartbeat CPU  0 instructions:  124000000 cycles:  340263156 heartbeat IPC: 0.21275 cumulative IPC: 0.23516 (Simulation time: 0 hr 17 min 10 sec) 
Heartbeat CPU  1 instructions:  122000003 cycles:  341011392 heartbeat IPC: 0.22033 cumulative IPC: 0.22632 (Simulation time: 0 hr 17 min 12 sec) 
Heartbeat CPU  3 instructions:  119000000 cycles:  343155299 heartbeat IPC: 0.22222 cumulative IPC: 0.21680 (Simulation time: 0 hr 17 min 16 sec) 
Heartbeat CPU  0 instructions:  125000002 cycles:  345074046 heartbeat IPC: 0.20786 cumulative IPC: 0.23474 (Simulation time: 0 hr 17 min 20 sec) 
Heartbeat CPU  2 instructions:  148000000 cycles:  345316906 heartbeat IPC: 0.17503 cumulative IPC: 0.27577 (Simulation time: 0 hr 17 min 20 sec) 
Heartbeat CPU  1 instructions:  123000001 cycles:  345437860 heartbeat IPC: 0.22591 cumulative IPC: 0.22632 (Simulation time: 0 hr 17 min 21 sec) 
Heartbeat CPU  3 instructions:  120000000 cycles:  347662838 heartbeat IPC: 0.22185 cumulative IPC: 0.21687 (Simulation time: 0 hr 17 min 25 sec) 
Heartbeat CPU  0 instructions:  126000001 cycles:  349708252 heartbeat IPC: 0.21579 cumulative IPC: 0.23447 (Simulation time: 0 hr 17 min 29 sec) 
Heartbeat CPU  1 instructions:  124000000 cycles:  350062434 heartbeat IPC: 0.21624 cumulative IPC: 0.22617 (Simulation time: 0 hr 17 min 30 sec) 
Heartbeat CPU  2 instructions:  149000003 cycles:  351115776 heartbeat IPC: 0.17245 cumulative IPC: 0.27392 (Simulation time: 0 hr 17 min 32 sec) 
Heartbeat CPU  3 instructions:  121000003 cycles:  352153679 heartbeat IPC: 0.22268 cumulative IPC: 0.21695 (Simulation time: 0 hr 17 min 34 sec) 
Heartbeat CPU  0 instructions:  127000002 cycles:  354292028 heartbeat IPC: 0.21816 cumulative IPC: 0.23425 (Simulation time: 0 hr 17 min 38 sec) 
Heartbeat CPU  1 instructions:  125000002 cycles:  354735192 heartbeat IPC: 0.21401 cumulative IPC: 0.22600 (Simulation time: 0 hr 17 min 39 sec) 
[...]
Core_0_LLC_acc_level_4 3961
Core_0_LLC_acc_level_5 6915
Core_0_LLC_acc_level_6 2404
Core_0_LLC_acc_level_7 1990
Core_0_LLC_acc_level_8 1359
Core_0_LLC_acc_level_9 10841

Core_0_major_page_fault 0
Core_0_minor_page_fault 17973

Core_1_instructions 150000000
Core_1_cycles 665387012
Core_1_IPC 0.22543

Core_1_branch_prediction_accuracy 97.29156
Core_1_branch_MPKI 4.99712
Core_1_average_ROB_occupancy_at_mispredict 84.54909

Core_1_L1D_total_access 23818475
Core_1_L1D_total_hit 20952582
Core_1_L1D_total_miss 2865893
Core_1_L1D_loads 13717013
Core_1_L1D_load_hit 11625674
Core_1_L1D_load_miss 2091339
Core_1_L1D_RFOs 10101462
Core_1_L1D_RFO_hit 9326908
Core_1_L1D_RFO_miss 774554
Core_1_L1D_prefetches 0
Core_1_L1D_prefetch_hit 0
Core_1_L1D_prefetch_miss 0
Core_1_L1D_writebacks 0
Core_1_L1D_writeback_hit 0
Core_1_L1D_writeback_miss 0
Core_1_L1D_prefetch_requested 0
Core_1_L1D_prefetch_dropped 0
Core_1_L1D_prefetch_issued 0
Core_1_L1D_prefetch_filled 0
Core_1_L1D_prefetch_useful 0
Core_1_L1D_prefetch_useless 0
Core_1_L1D_prefetch_late 0
Core_1_L1D_average_miss_latency 85.93002

Core_1_L1D_rq_access 27215182
Core_1_L1D_rq_forward 0
Core_1_L1D_rq_merged 12400850
Core_1_L1D_rq_to_cache 14811551
Core_1_L1D_rq_full 0

Core_1_L1D_wq_access 13585572
Core_1_L1D_wq_forward 2781
Core_1_L1D_wq_merged 39292
Core_1_L1D_wq_to_cache 13546280
Core_1_L1D_wq_full 0

Core_1_L1D_pq_access 0
Core_1_L1D_pq_forward 0
Core_1_L1D_pq_merged 0
Core_1_L1D_pq_to_cache 0
Core_1_L1D_pq_full 0

Core_1_L1D_acc_epochs 169986
Core_1_L1D_acc_level_0 169986
Core_1_L1D_acc_level_1 0
Core_1_L1D_acc_level_2 0
Core_1_L1D_acc_level_3 0
Core_1_L1D_acc_level_4 0
Core_1_L1D_acc_level_5 0
Core_1_L1D_acc_level_6 0
Core_1_L1D_acc_level_7 0
Core_1_L1D_acc_level_8 0
Core_1_L1D_acc_level_9 0

Core_1_L1I_total_access 32476536
Core_1_L1I_total_hit 26572058
Core_1_L1I_total_miss 5904478
Core_1_L1I_loads 32476536
Core_1_L1I_load_hit 26572058
Core_1_L1I_load_miss 5904478
Core_1_L1I_RFOs 0
Core_1_L1I_RFO_hit 0
Core_1_L1I_RFO_miss 0
Core_1_L1I_prefetches 0
Core_1_L1I_prefetch_hit 0
Core_1_L1I_prefetch_miss 0
Core_1_L1I_writebacks 0
Core_1_L1I_writeback_hit 0
Core_1_L1I_writeback_miss 0
Core_1_L1I_prefetch_requested 0
Core_1_L1I_prefetch_dropped 0
Core_1_L1I_prefetch_issued 0
Core_1_L1I_prefetch_filled 0
Core_1_L1I_prefetch_useful 0
Core_1_L1I_prefetch_useless 0
Core_1_L1I_prefetch_late 0
Core_1_L1I_average_miss_latency 89.35909

Core_1_L1I_rq_access 156733639
Core_1_L1I_rq_forward 0
Core_1_L1I_rq_merged 119179578
Core_1_L1I_rq_to_cache 37554061
Core_1_L1I_rq_full 0

Core_1_L1I_wq_access 0
Core_1_L1I_wq_forward 0
Core_1_L1I_wq_merged 0
Core_1_L1I_wq_to_cache 0
Core_1_L1I_wq_full 0

Core_1_L1I_pq_access 0
Core_1_L1I_pq_forward 0
Core_1_L1I_pq_merged 0
Core_1_L1I_pq_to_cache 0
Core_1_L1I_pq_full 0

Core_1_L1I_acc_epochs 169986
Core_1_L1I_acc_level_0 169986
Core_1_L1I_acc_level_1 0
Core_1_L1I_acc_level_2 0
Core_1_L1I_acc_level_3 0
Core_1_L1I_acc_level_4 0
Core_1_L1I_acc_level_5 0
Core_1_L1I_acc_level_6 0
Core_1_L1I_acc_level_7 0
Core_1_L1I_acc_level_8 0
Core_1_L1I_acc_level_9 0

Core_1_L2C_total_access 13781224
Core_1_L2C_total_hit 12504406
Core_1_L2C_total_miss 1276818
Core_1_L2C_loads 7995560
Core_1_L2C_load_hit 7527235
Core_1_L2C_load_miss 468325
Core_1_L2C_RFOs 774177
Core_1_L2C_RFO_hit 444833
Core_1_L2C_RFO_miss 329344
Core_1_L2C_prefetches 3929019
Core_1_L2C_prefetch_hit 3462569
Core_1_L2C_prefetch_miss 466450
Core_1_L2C_writebacks 1082468
Core_1_L2C_writeback_hit 1069769
Core_1_L2C_writeback_miss 12699
Core_1_L2C_prefetch_requested 6018285
Core_1_L2C_prefetch_dropped 0
Core_1_L2C_prefetch_issued 6018285
Core_1_L2C_prefetch_filled 618947
Core_1_L2C_prefetch_useful 541292
Core_1_L2C_prefetch_useless 77485
Core_1_L2C_prefetch_late 29313
Core_1_L2C_average_miss_latency 125.10752

Core_1_L2C_rq_access 9192611
Core_1_L2C_rq_forward 0
Core_1_L2C_rq_merged 0
Core_1_L2C_rq_to_cache 9191907
Core_1_L2C_rq_full 0

Core_1_L2C_wq_access 1131206
Core_1_L2C_wq_forward 722
Core_1_L2C_wq_merged 0
Core_1_L2C_wq_to_cache 1131206
Core_1_L2C_wq_full 0

Core_1_L2C_pq_access 6018285
Core_1_L2C_pq_forward 0
Core_1_L2C_pq_merged 0
Core_1_L2C_pq_to_cache 6018267
Core_1_L2C_pq_full 0

Core_1_L2C_acc_epochs 169986
Core_1_L2C_acc_level_0 77292
Core_1_L2C_acc_level_1 18177
Core_1_L2C_acc_level_2 13835
Core_1_L2C_acc_level_3 8936
Core_1_L2C_acc_level_4 5468
Core_1_L2C_acc_level_5 10464
Core_1_L2C_acc_level_6 5086
Core_1_L2C_acc_level_7 4071
Core_1_L2C_acc_level_8 3210
Core_1_L2C_acc_level_9 23447

Core_1_LLC_total_access 2066265
Core_1_LLC_total_hit 1356071
Core_1_LLC_total_miss 710194
Core_1_LLC_loads 440210
Core_1_LLC_load_hit 317469
Core_1_LLC_load_miss 122741
Core_1_LLC_RFOs 329286
Core_1_LLC_RFO_hit 214424
Core_1_LLC_RFO_miss 114862
Core_1_LLC_prefetches 867311
Core_1_LLC_prefetch_hit 435287
Core_1_LLC_prefetch_miss 432024
Core_1_LLC_writebacks 429458
Core_1_LLC_writeback_hit 388891
Core_1_LLC_writeback_miss 40567
Core_1_LLC_prefetch_requested 0
Core_1_LLC_prefetch_dropped 0
Core_1_LLC_prefetch_issued 0
Core_1_LLC_prefetch_filled 2759094
Core_1_LLC_prefetch_useful 447295
Core_1_LLC_prefetch_useless 2269800
Core_1_LLC_prefetch_late 12317
Core_1_LLC_average_miss_latency 859.84651

Core_1_LLC_rq_access 3073458
Core_1_LLC_rq_forward 0
Core_1_LLC_rq_merged 0
Core_1_LLC_rq_to_cache 3073338
Core_1_LLC_rq_full 0

Core_1_LLC_wq_access 1737750
Core_1_LLC_wq_forward 133
Core_1_LLC_wq_merged 0
Core_1_LLC_wq_to_cache 1737750
Core_1_LLC_wq_full 0

Core_1_LLC_pq_access 5106966
Core_1_LLC_pq_forward 0
Core_1_LLC_pq_merged 0
Core_1_LLC_pq_to_cache 5106953
Core_1_LLC_pq_full 0

Core_1_LLC_acc_epochs 704689
Core_1_LLC_acc_level_0 617397
Core_1_LLC_acc_level_1 34236
Core_1_LLC_acc_level_2 17472
Core_1_LLC_acc_level_3 8114
Core_1_LLC_acc_level_4 3961
Core_1_LLC_acc_level_5 6915
Core_1_LLC_acc_level_6 2404
Core_1_LLC_acc_level_7 1990
Core_1_LLC_acc_level_8 1359
Core_1_LLC_acc_level_9 10841

Core_1_major_page_fault 0
Core_1_minor_page_fault 17503

Core_2_instructions 150000003
Core_2_cycles 582092694
Core_2_IPC 0.25769

Core_2_branch_prediction_accuracy 97.32425
Core_2_branch_MPKI 4.21351
Core_2_average_ROB_occupancy_at_mispredict 86.09500

Core_2_L1D_total_access 19023442
Core_2_L1D_total_hit 16643601
Core_2_L1D_total_miss 2379841
Core_2_L1D_loads 12417670
Core_2_L1D_load_hit 10566582
Core_2_L1D_load_miss 1851088
Core_2_L1D_RFOs 6605772
Core_2_L1D_RFO_hit 6077019
Core_2_L1D_RFO_miss 528753
Core_2_L1D_prefetches 0
Core_2_L1D_prefetch_hit 0
Core_2_L1D_prefetch_miss 0
Core_2_L1D_writebacks 0
Core_2_L1D_writeback_hit 0
Core_2_L1D_writeback_miss 0
Core_2_L1D_prefetch_requested 0
Core_2_L1D_prefetch_dropped 0
Core_2_L1D_prefetch_issued 0
Core_2_L1D_prefetch_filled 0
Core_2_L1D_prefetch_useful 0
Core_2_L1D_prefetch_useless 0
Core_2_L1D_prefetch_late 0
Core_2_L1D_average_miss_latency 92.26999

Core_2_L1D_rq_access 29994888
Core_2_L1D_rq_forward 0
Core_2_L1D_rq_merged 13511778
Core_2_L1D_rq_to_cache 16479176
Core_2_L1D_rq_full 0

Core_2_L1D_wq_access 9856033
Core_2_L1D_wq_forward 3934
Core_2_L1D_wq_merged 30259
Core_2_L1D_wq_to_cache 9825774
Core_2_L1D_wq_full 0

Core_2_L1D_pq_access 0
Core_2_L1D_pq_forward 0
Core_2_L1D_pq_merged 0
Core_2_L1D_pq_to_cache 0
Core_2_L1D_pq_full 0

Core_2_L1D_acc_epochs 177948
Core_2_L1D_acc_level_0 177948
Core_2_L1D_acc_level_1 0
Core_2_L1D_acc_level_2 0
Core_2_L1D_acc_level_3 0
Core_2_L1D_acc_level_4 0
Core_2_L1D_acc_level_5 0
Core_2_L1D_acc_level_6 0
Core_2_L1D_acc_level_7 0
Core_2_L1D_acc_level_8 0
Core_2_L1D_acc_level_9 0

Core_2_L1I_total_access 28981242
Core_2_L1I_total_hit 25615939
Core_2_L1I_total_miss 3365303
Core_2_L1I_loads 28981242
Core_2_L1I_load_hit 25615939
Core_2_L1I_load_miss 3365303
Core_2_L1I_RFOs 0
Core_2_L1I_RFO_hit 0
Core_2_L1I_RFO_miss 0
Core_2_L1I_prefetches 0
Core_2_L1I_prefetch_hit 0
Core_2_L1I_prefetch_miss 0
Core_2_L1I_writebacks 0
Core_2_L1I_writeback_hit 0
Core_2_L1I_writeback_miss 0
Core_2_L1I_prefetch_requested 0
Core_2_L1I_prefetch_dropped 0
Core_2_L1I_prefetch_issued 0
Core_2_L1I_prefetch_filled 0
Core_2_L1I_prefetch_useful 0
Core_2_L1I_prefetch_useless 0
Core_2_L1I_prefetch_late 0
Core_2_L1I_average_miss_latency 101.63511

Core_2_L1I_rq_access 187555302
Core_2_L1I_rq_forward 0
Core_2_L1I_rq_merged 149415775
Core_2_L1I_rq_to_cache 38139527
Core_2_L1I_rq_full 0

Core_2_L1I_wq_access 0
Core_2_L1I_wq_forward 0
Core_2_L1I_wq_merged 0
Core_2_L1I_wq_to_cache 0
Core_2_L1I_wq_full 0

Core_2_L1I_pq_access 0
Core_2_L1I_pq_forward 0
Core_2_L1I_pq_merged 0
Core_2_L1I_pq_to_cache 0
Core_2_L1I_pq_full 0

Core_2_L1I_acc_epochs 177948
Core_2_L1I_acc_level_0 177948
Core_2_L1I_acc_level_1 0
Core_2_L1I_acc_level_2 0
Core_2_L1I_acc_level_3 0
Core_2_L1I_acc_level_4 0
Core_2_L1I_acc_level_5 0
Core_2_L1I_acc_level_6 0
Core_2_L1I_acc_level_7 0
Core_2_L1I_acc_level_8 0
Core_2_L1I_acc_level_9 0

Core_2_L2C_total_access 10313500
Core_2_L2C_total_hit 9032277
Core_2_L2C_total_miss 1281223
Core_2_L2C_loads 5216166
Core_2_L2C_load_hit 4804193
Core_2_L2C_load_miss 411973
Core_2_L2C_RFOs 528481
Core_2_L2C_RFO_hit 347188
Core_2_L2C_RFO_miss 181293
Core_2_L2C_prefetches 3672807
Core_2_L2C_prefetch_hit 2995430
Core_2_L2C_prefetch_miss 677377
Core_2_L2C_writebacks 896046
Core_2_L2C_writeback_hit 885466
Core_2_L2C_writeback_miss 10580
Core_2_L2C_prefetch_requested 6129054
Core_2_L2C_prefetch_dropped 0
Core_2_L2C_prefetch_issued 6129054
Core_2_L2C_prefetch_filled 1150124
Core_2_L2C_prefetch_useful 1067040
Core_2_L2C_prefetch_useless 82898
Core_2_L2C_prefetch_late 18362
Core_2_L2C_average_miss_latency 196.85129

Core_2_L2C_rq_access 6724341
Core_2_L2C_rq_forward 0
Core_2_L2C_rq_merged 0
Core_2_L2C_rq_to_cache 6723782
Core_2_L2C_rq_full 0

Core_2_L2C_wq_access 1041498
Core_2_L2C_wq_forward 576
Core_2_L2C_wq_merged 0
Core_2_L2C_wq_to_cache 1041498
Core_2_L2C_wq_full 0

Core_2_L2C_pq_access 6129054
Core_2_L2C_pq_forward 0
Core_2_L2C_pq_merged 0
Core_2_L2C_pq_to_cache 6129037
Core_2_L2C_pq_full 0

Core_2_L2C_acc_epochs 177948
Core_2_L2C_acc_level_0 30092
Core_2_L2C_acc_level_1 20119
Core_2_L2C_acc_level_2 18017
Core_2_L2C_acc_level_3 15425
Core_2_L2C_acc_level_4 10413
Core_2_L2C_acc_level_5 14218
Core_2_L2C_acc_level_6 10200
Core_2_L2C_acc_level_7 8518
Core_2_L2C_acc_level_8 6644
Core_2_L2C_acc_level_9 44302

Core_2_LLC_total_access 1903596
Core_2_LLC_total_hit 1133725
Core_2_LLC_total_miss 769871
Core_2_LLC_loads 396384
Core_2_LLC_load_hit 307073
Core_2_LLC_load_miss 89311
Core_2_LLC_RFOs 181232
Core_2_LLC_RFO_hit 107037
Core_2_LLC_RFO_miss 74195
Core_2_LLC_prefetches 1010667
Core_2_LLC_prefetch_hit 425778
Core_2_LLC_prefetch_miss 584889
Core_2_LLC_writebacks 315313
Core_2_LLC_writeback_hit 293837
Core_2_LLC_writeback_miss 21476
Core_2_LLC_prefetch_requested 0
Core_2_LLC_prefetch_dropped 0
Core_2_LLC_prefetch_issued 0
Core_2_LLC_prefetch_filled 2759094
Core_2_LLC_prefetch_useful 447295
Core_2_LLC_prefetch_useless 2269800
Core_2_LLC_prefetch_late 12317
Core_2_LLC_average_miss_latency 793.19500

Core_2_LLC_rq_access 3073458
Core_2_LLC_rq_forward 0
Core_2_LLC_rq_merged 0
Core_2_LLC_rq_to_cache 3073338
Core_2_LLC_rq_full 0

Core_2_LLC_wq_access 1737750
Core_2_LLC_wq_forward 133
Core_2_LLC_wq_merged 0
Core_2_LLC_wq_to_cache 1737750
Core_2_LLC_wq_full 0

Core_2_LLC_pq_access 5106966
Core_2_LLC_pq_forward 0
Core_2_LLC_pq_merged 0
Core_2_LLC_pq_to_cache 5106953
Core_2_LLC_pq_full 0

Core_2_LLC_acc_epochs 704689
Core_2_LLC_acc_level_0 617397
Core_2_LLC_acc_level_1 34236
Core_2_LLC_acc_level_2 17472
Core_2_LLC_acc_level_3 8114
Core_2_LLC_acc_level_4 3961
Core_2_LLC_acc_level_5 6915
Core_2_LLC_acc_level_6 2404
Core_2_LLC_acc_level_7 1990
Core_2_LLC_acc_level_8 1359
Core_2_LLC_acc_level_9 10841

Core_2_major_page_fault 0
Core_2_minor_page_fault 15290

Core_3_instructions 150000000
Core_3_cycles 696022512
Core_3_IPC 0.21551

Core_3_branch_prediction_accuracy 97.21755
Core_3_branch_MPKI 5.20988
Core_3_average_ROB_occupancy_at_mispredict 85.16071

Core_3_L1D_total_access 24753458
Core_3_L1D_total_hit 21782714
Core_3_L1D_total_miss 2970744
Core_3_L1D_loads 14157546
Core_3_L1D_load_hit 12014623
Core_3_L1D_load_miss 2142923
Core_3_L1D_RFOs 10595912
Core_3_L1D_RFO_hit 9768091
Core_3_L1D_RFO_miss 827821
Core_3_L1D_prefetches 0
Core_3_L1D_prefetch_hit 0
Core_3_L1D_prefetch_miss 0
Core_3_L1D_writebacks 0
Core_3_L1D_writeback_hit 0
Core_3_L1D_writeback_miss 0
Core_3_L1D_prefetch_requested 0
Core_3_L1D_prefetch_dropped 0
Core_3_L1D_prefetch_issued 0
Core_3_L1D_prefetch_filled 0
Core_3_L1D_prefetch_useful 0
Core_3_L1D_prefetch_useless 0
Core_3_L1D_prefetch_late 0
Core_3_L1D_average_miss_latency 83.94540

Core_3_L1D_rq_access 26504686
Core_3_L1D_rq_forward 0
Core_3_L1D_rq_merged 12004381
Core_3_L1D_rq_to_cache 14497248
Core_3_L1D_rq_full 0

Core_3_L1D_wq_access 13699511
Core_3_L1D_wq_forward 3057
Core_3_L1D_wq_merged 40159
Core_3_L1D_wq_to_cache 13659352
Core_3_L1D_wq_full 0

Core_3_L1D_pq_access 0
Core_3_L1D_pq_forward 0
Core_3_L1D_pq_merged 0
Core_3_L1D_pq_to_cache 0
Core_3_L1D_pq_full 0

Core_3_L1D_acc_epochs 166381
Core_3_L1D_acc_level_0 166381
Core_3_L1D_acc_level_1 0
Core_3_L1D_acc_level_2 0
Core_3_L1D_acc_level_3 0
Core_3_L1D_acc_level_4 0
Core_3_L1D_acc_level_5 0
Core_3_L1D_acc_level_6 0
Core_3_L1D_acc_level_7 0
Core_3_L1D_acc_level_8 0
Core_3_L1D_acc_level_9 0

Core_3_L1I_total_access 32780111
Core_3_L1I_total_hit 26536661
Core_3_L1I_total_miss 6243450
Core_3_L1I_loads 32780111
Core_3_L1I_load_hit 26536661
Core_3_L1I_load_miss 6243450
Core_3_L1I_RFOs 0
Core_3_L1I_RFO_hit 0
Core_3_L1I_RFO_miss 0
Core_3_L1I_prefetches 0
Core_3_L1I_prefetch_hit 0
Core_3_L1I_prefetch_miss 0
Core_3_L1I_writebacks 0
Core_3_L1I_writeback_hit 0
Core_3_L1I_writeback_miss 0
Core_3_L1I_prefetch_requested 0
Core_3_L1I_prefetch_dropped 0
Core_3_L1I_prefetch_issued 0
Core_3_L1I_prefetch_filled 0
Core_3_L1I_prefetch_useful 0
Core_3_L1I_prefetch_useless 0
Core_3_L1I_prefetch_late 0
Core_3_L1I_average_miss_latency 84.87486

Core_3_L1I_rq_access 150000209
Core_3_L1I_rq_forward 0
Core_3_L1I_rq_merged 113591440
Core_3_L1I_rq_to_cache 36408769
Core_3_L1I_rq_full 0

Core_3_L1I_wq_access 0
Core_3_L1I_wq_forward 0
Core_3_L1I_wq_merged 0
Core_3_L1I_wq_to_cache 0
Core_3_L1I_wq_full 0

Core_3_L1I_pq_access 0
Core_3_L1I_pq_forward 0
Core_3_L1I_pq_merged 0
Core_3_L1I_pq_to_cache 0
Core_3_L1I_pq_full 0

Core_3_L1I_acc_epochs 166381
Core_3_L1I_acc_level_0 166381
Core_3_L1I_acc_level_1 0
Core_3_L1I_acc_level_2 0
Core_3_L1I_acc_level_3 0
Core_3_L1I_acc_level_4 0
Core_3_L1I_acc_level_5 0
Core_3_L1I_acc_level_6 0
Core_3_L1I_acc_level_7 0
Core_3_L1I_acc_level_8 0
Core_3_L1I_acc_level_9 0

Core_3_L2C_total_access 14058610
Core_3_L2C_total_hit 12766853
Core_3_L2C_total_miss 1291757
Core_3_L2C_loads 8386159
Core_3_L2C_load_hit 7915579
Core_3_L2C_load_miss 470580
Core_3_L2C_RFOs 827371
Core_3_L2C_RFO_hit 467064
Core_3_L2C_RFO_miss 360307
Core_3_L2C_prefetches 3695941
Core_3_L2C_prefetch_hit 3245568
Core_3_L2C_prefetch_miss 450373
Core_3_L2C_writebacks 1149139
Core_3_L2C_writeback_hit 1138642
Core_3_L2C_writeback_miss 10497
Core_3_L2C_prefetch_requested 5420475
Core_3_L2C_prefetch_dropped 0
Core_3_L2C_prefetch_issued 5420475
Core_3_L2C_prefetch_filled 600010
Core_3_L2C_prefetch_useful 528339
Core_3_L2C_prefetch_useless 71424
Core_3_L2C_prefetch_late 31252
Core_3_L2C_average_miss_latency 120.37880

Core_3_L2C_rq_access 9214196
Core_3_L2C_rq_forward 0
Core_3_L2C_rq_merged 0
Core_3_L2C_rq_to_cache 9213531
Core_3_L2C_rq_full 0

Core_3_L2C_wq_access 1149139
Core_3_L2C_wq_forward 674
Core_3_L2C_wq_merged 0
Core_3_L2C_wq_to_cache 1149139
Core_3_L2C_wq_full 0

Core_3_L2C_pq_access 5420475
Core_3_L2C_pq_forward 0
Core_3_L2C_pq_merged 2
Core_3_L2C_pq_to_cache 5420464
Core_3_L2C_pq_full 0

Core_3_L2C_acc_epochs 166381
Core_3_L2C_acc_level_0 81174
Core_3_L2C_acc_level_1 16845
Core_3_L2C_acc_level_2 12885
Core_3_L2C_acc_level_3 7650
Core_3_L2C_acc_level_4 4918
Core_3_L2C_acc_level_5 9747
Core_3_L2C_acc_level_6 4487
Core_3_L2C_acc_level_7 3891
Core_3_L2C_acc_level_8 3083
Core_3_L2C_acc_level_9 21701

Core_3_LLC_total_access 2110338
Core_3_LLC_total_hit 1403396
Core_3_LLC_total_miss 706942
Core_3_LLC_loads 439484
Core_3_LLC_load_hit 321758
Core_3_LLC_load_miss 117726
Core_3_LLC_RFOs 360281
Core_3_LLC_RFO_hit 225588
Core_3_LLC_RFO_miss 134693
Core_3_LLC_prefetches 848868
Core_3_LLC_prefetch_hit 443813
Core_3_LLC_prefetch_miss 405055
Core_3_LLC_writebacks 461705
Core_3_LLC_writeback_hit 412237
Core_3_LLC_writeback_miss 49468
Core_3_LLC_prefetch_requested 0
Core_3_LLC_prefetch_dropped 0
Core_3_LLC_prefetch_issued 0
Core_3_LLC_prefetch_filled 2759094
Core_3_LLC_prefetch_useful 447295
Core_3_LLC_prefetch_useless 2269800
Core_3_LLC_prefetch_late 12317
Core_3_LLC_average_miss_latency 863.80188

Core_3_LLC_rq_access 3073458
Core_3_LLC_rq_forward 0
Core_3_LLC_rq_merged 0
Core_3_LLC_rq_to_cache 3073338
Core_3_LLC_rq_full 0

Core_3_LLC_wq_access 1737750
Core_3_LLC_wq_forward 133
Core_3_LLC_wq_merged 0
Core_3_LLC_wq_to_cache 1737750
Core_3_LLC_wq_full 0

Core_3_LLC_pq_access 5106966
Core_3_LLC_pq_forward 0
Core_3_LLC_pq_merged 0
Core_3_LLC_pq_to_cache 5106953
Core_3_LLC_pq_full 0

Core_3_LLC_acc_epochs 704689
Core_3_LLC_acc_level_0 617397
Core_3_LLC_acc_level_1 34236
Core_3_LLC_acc_level_2 17472
Core_3_LLC_acc_level_3 8114
Core_3_LLC_acc_level_4 3961
Core_3_LLC_acc_level_5 6915
Core_3_LLC_acc_level_6 2404
Core_3_LLC_acc_level_7 1990
Core_3_LLC_acc_level_8 1359
Core_3_LLC_acc_level_9 10841

Core_3_major_page_fault 0
Core_3_minor_page_fault 17867

[Bingo] PHT Access: 2198663
[Bingo] PHT Hit PC+Addr: 1490519
[Bingo] PHT Hit PC+Offs: 139991
[Bingo] PHT Miss: 568153
[Bingo] Prefetch PC+Addr: 0
[Bingo] Prefetch PC+Offs: 0
[Bingo] Useful PC+Addr: 0
[Bingo] Useful PC+Offs: 0
[Bingo] Useless PC+Addr: 0
[Bingo] Useless PC+Offs: 0
[Bingo] L1 Prefetch per Region: 0.00000
[Bingo] L2 Prefetch per Region: 4.18076
[Bingo] L3 Prefetch per Region: 0.33196
[Bingo] No Prefetch per Region: 27.48728
[Bingo] Number of Voters Mean: 3.95203
[Bingo] Number of Voters SD: 4.09894

[Bingo] PHT Access: 2265567
[Bingo] PHT Hit PC+Addr: 1504021
[Bingo] PHT Hit PC+Offs: 141311
[Bingo] PHT Miss: 620235
[Bingo] Prefetch PC+Addr: 0
[Bingo] Prefetch PC+Offs: 0
[Bingo] Useful PC+Addr: 0
[Bingo] Useful PC+Offs: 0
[Bingo] Useless PC+Addr: 0
[Bingo] Useless PC+Offs: 0
[Bingo] L1 Prefetch per Region: 0.00000
[Bingo] L2 Prefetch per Region: 4.32096
[Bingo] L3 Prefetch per Region: 0.34063
[Bingo] No Prefetch per Region: 27.33841
[Bingo] Number of Voters Mean: 3.78828
[Bingo] Number of Voters SD: 3.90553

[Bingo] PHT Access: 1808585
[Bingo] PHT Hit PC+Addr: 1225934
[Bingo] PHT Hit PC+Offs: 138405
[Bingo] PHT Miss: 444246
[Bingo] Prefetch PC+Addr: 0
[Bingo] Prefetch PC+Offs: 0
[Bingo] Useful PC+Addr: 0
[Bingo] Useful PC+Offs: 0
[Bingo] Useless PC+Addr: 0
[Bingo] Useless PC+Offs: 0
[Bingo] L1 Prefetch per Region: 0.00000
[Bingo] L2 Prefetch per Region: 5.14177
[Bingo] L3 Prefetch per Region: 0.36219
[Bingo] No Prefetch per Region: 26.49603
[Bingo] Number of Voters Mean: 7.03128
[Bingo] Number of Voters SD: 5.76819

[Bingo] PHT Access: 2147331
[Bingo] PHT Hit PC+Addr: 1396873
[Bingo] PHT Hit PC+Offs: 138602
[Bingo] PHT Miss: 611856
[Bingo] Prefetch PC+Addr: 0
[Bingo] Prefetch PC+Offs: 0
[Bingo] Useful PC+Addr: 0
[Bingo] Useful PC+Offs: 0
[Bingo] Useless PC+Addr: 0
[Bingo] Useless PC+Offs: 0
[Bingo] L1 Prefetch per Region: 0.00000
[Bingo] L2 Prefetch per Region: 4.18846
[Bingo] L3 Prefetch per Region: 0.34629
[Bingo] No Prefetch per Region: 27.46525
[Bingo] Number of Voters Mean: 3.72772
[Bingo] Number of Voters SD: 3.82108

Channel_0_RQ_row_buffer_hit 712859
Channel_0_RQ_row_buffer_miss 818892
Channel_0_WQ_row_buffer_hit 29329
Channel_0_WQ_row_buffer_miss 261357
Channel_0_WQ_full 0
Channel_0_dbus_congested 1073683

Channel_1_RQ_row_buffer_hit 712294
Channel_1_RQ_row_buffer_miss 828610
Channel_1_WQ_row_buffer_hit 29606
Channel_1_WQ_row_buffer_miss 261810
Channel_1_WQ_full 0
Channel_1_dbus_congested 1081660

avg_congested_cycle 10

DRAM_bw_pochs 2818753
DRAM_bw_level_0 2644999
DRAM_bw_level_1 88240
DRAM_bw_level_2 30410
DRAM_bw_level_3 55104
