*************************************************
   ChampSim Multicore Out-of-Order Simulator
   Last compiled: Mar 31 2025 20:14:32
*************************************************
parsing config file: /data3/config/dspatch.ini

trace_0 /data3/STREAMING/traces/streaming_phase4_core0.trace.xz
trace_1 /data3/STREAMING/traces/streaming_phase4_core1.trace.xz
trace_2 /data3/STREAMING/traces/streaming_phase4_core2.trace.xz
trace_3 /data3/STREAMING/traces/streaming_phase4_core3.trace.xz
adding L2C_PREFETCHER: DSPatch
adding L2C_PREFETCHER: DSPatch
adding L2C_PREFETCHER: DSPatch
adding L2C_PREFETCHER: DSPatch
Initialize SHIP state
warmup_instructions 50000000
simulation_instructions 150000000
champsim_seed 8862
measure_ipc 0
measure_ipc_epoch 1000
measure_dram_bw 1
measure_dram_bw_epoch 256
measure_cache_acc 1
measure_cache_acc_epoch 1024
l1d_perfect 0
l2c_perfect 0
llc_perfect 0
l1d_semi_perfect 0
l2c_semi_perfect 0
llc_semi_perfect 0
semi_perfect_cache_page_buffer_size 64

num_cpus 4
cpu_freq 4000
dram_io_freq 2400
page_size 4096
block_size 64
max_read_per_cycle 8
max_fill_per_cycle 1
dram_channels 2
log2_dram_channels 1
dram_ranks 1
dram_banks 8
dram_rows 65536
dram_columns 128
dram_row_size 8
dram_size 8192
dram_pages 2097152

fetch_width 6
decode_width 6
exec_width 4
lq_width 2
sq_width 2
retire_width 4
scheduler_size 128
branch_mispredict_penalty 20
rob_size 256
lq_size 72
sq_size 56
num_instr_destinations_sparc 4
num_instr_destinations 2
num_instr_sources 4

itlb_set 16
itlb_way 8
itlb_rq_size 16
itlb_wq_size 16
itlb_pq_size 0
itlb_mshr_size 8
itlb_latency 1

dtlb_set 16
dtlb_way 4
dtlb_rq_size 16
dtlb_wq_size 16
dtlb_pq_size 0
dtlb_mshr_size 8
dtlb_latency 1

stlb_set 128
stlb_way 12
stlb_rq_size 32
stlb_wq_size 32
stlb_pq_size 0
stlb_mshr_size 16
stlb_latency 8

l1i_size 32
l1i_set 64
l1i_way 8
l1i_rq_size 64
l1i_wq_size 64
l1i_pq_size 8
l1i_mshr_size 8
l1i_latency 1

l1d_size 32
l1d_set 64
l1d_way 8
l1d_rq_size 64
l1d_wq_size 64
l1d_pq_size 8
l1d_mshr_size 16
l1d_latency 4

l2c_size 256
l2c_set 512
l2c_way 8
l2c_rq_size 32
l2c_wq_size 32
l2c_pq_size 32
l2c_mshr_size 32
l2c_latency 10

llc_size 8192
llc_set 8192
llc_way 16
llc_rq_size 128
llc_wq_size 128
llc_pq_size 128
llc_mshr_size 256
llc_latency 20

dram_channel_width 8
dram_wq_size 64
dram_rq_size 64
tRP 15
tRCD 15
tCAS 12.5
dram_dbus_turn_around_time 30
dram_write_high_wm 56
dram_write_low_wm 48
min_dram_writes_per_switch 16
dram_mtps 2400
dram_dbus_return_time 13

dspatch_log2_region_size 11
dspatch_num_cachelines_in_region 32
dspatch_pb_size 64
dspatch_num_spt_entries 256
dspatch_compression_granularity 2
dspatch_pred_throttle_bw_thr 3
dspatch_bitmap_selection_policy 3
dspatch_sig_type 1
dspatch_sig_hash_type 2
dspatch_or_count_max 3
dspatch_measure_covP_max 3
dspatch_measure_accP_max 3
dspatch_acc_thr 50
dspatch_cov_thr 50
dspatch_enable_pref_buffer 1
dspatch_pref_buffer_size 256
dspatch_pref_degree 4


Heartbeat CPU  0 instructions:    1000003 cycles:     634686 heartbeat IPC: 1.57559 cumulative IPC: 1.57559 (Simulation time: 0 hr 0 min 10 sec) 
Heartbeat CPU  1 instructions:    1000002 cycles:     647678 heartbeat IPC: 1.54398 cumulative IPC: 1.54398 (Simulation time: 0 hr 0 min 11 sec) 
Heartbeat CPU  3 instructions:    1000000 cycles:     647835 heartbeat IPC: 1.54360 cumulative IPC: 1.54360 (Simulation time: 0 hr 0 min 11 sec) 
Heartbeat CPU  2 instructions:    1000001 cycles:     723940 heartbeat IPC: 1.38133 cumulative IPC: 1.38133 (Simulation time: 0 hr 0 min 12 sec) 
Heartbeat CPU  0 instructions:    2000001 cycles:    1199826 heartbeat IPC: 1.76947 cumulative IPC: 1.66691 (Simulation time: 0 hr 0 min 21 sec) 
Heartbeat CPU  1 instructions:    2000002 cycles:    1210940 heartbeat IPC: 1.77537 cumulative IPC: 1.65161 (Simulation time: 0 hr 0 min 21 sec) 
Heartbeat CPU  3 instructions:    2000000 cycles:    1220462 heartbeat IPC: 1.74634 cumulative IPC: 1.63872 (Simulation time: 0 hr 0 min 21 sec) 
Heartbeat CPU  2 instructions:    2000000 cycles:    1349650 heartbeat IPC: 1.59818 cumulative IPC: 1.48187 (Simulation time: 0 hr 0 min 24 sec) 
Heartbeat CPU  0 instructions:    3000001 cycles:    1702208 heartbeat IPC: 1.99052 cumulative IPC: 1.76242 (Simulation time: 0 hr 0 min 32 sec) 
Heartbeat CPU  1 instructions:    3000000 cycles:    1732631 heartbeat IPC: 1.91684 cumulative IPC: 1.73147 (Simulation time: 0 hr 0 min 33 sec) 
Heartbeat CPU  3 instructions:    3000003 cycles:    1754493 heartbeat IPC: 1.87256 cumulative IPC: 1.70990 (Simulation time: 0 hr 0 min 33 sec) 
Heartbeat CPU  2 instructions:    3000001 cycles:    1817878 heartbeat IPC: 2.13571 cumulative IPC: 1.65028 (Simulation time: 0 hr 0 min 34 sec) 
Heartbeat CPU  2 instructions:    4000000 cycles:    2132223 heartbeat IPC: 3.18121 cumulative IPC: 1.87598 (Simulation time: 0 hr 0 min 43 sec) 
Heartbeat CPU  0 instructions:    4000000 cycles:    2158408 heartbeat IPC: 2.19202 cumulative IPC: 1.85322 (Simulation time: 0 hr 0 min 43 sec) 
Heartbeat CPU  3 instructions:    4000000 cycles:    2206557 heartbeat IPC: 2.21207 cumulative IPC: 1.81278 (Simulation time: 0 hr 0 min 45 sec) 
Heartbeat CPU  1 instructions:    4000000 cycles:    2234232 heartbeat IPC: 1.99362 cumulative IPC: 1.79032 (Simulation time: 0 hr 0 min 45 sec) 
Heartbeat CPU  2 instructions:    5000001 cycles:    2454678 heartbeat IPC: 3.10121 cumulative IPC: 2.03693 (Simulation time: 0 hr 0 min 51 sec) 
Heartbeat CPU  0 instructions:    5000003 cycles:    2616498 heartbeat IPC: 2.18298 cumulative IPC: 1.91095 (Simulation time: 0 hr 0 min 56 sec) 
Heartbeat CPU  3 instructions:    5000000 cycles:    2674085 heartbeat IPC: 2.13891 cumulative IPC: 1.86980 (Simulation time: 0 hr 0 min 58 sec) 
Heartbeat CPU  1 instructions:    5000002 cycles:    2718965 heartbeat IPC: 2.06300 cumulative IPC: 1.83894 (Simulation time: 0 hr 0 min 59 sec) 
Heartbeat CPU  2 instructions:    6000001 cycles:    2771940 heartbeat IPC: 3.15197 cumulative IPC: 2.16455 (Simulation time: 0 hr 1 min 0 sec) 
Heartbeat CPU  2 instructions:    7000001 cycles:    3074672 heartbeat IPC: 3.30325 cumulative IPC: 2.27667 (Simulation time: 0 hr 1 min 8 sec) 
Heartbeat CPU  0 instructions:    6000000 cycles:    3095372 heartbeat IPC: 2.08823 cumulative IPC: 1.93838 (Simulation time: 0 hr 1 min 8 sec) 
Heartbeat CPU  3 instructions:    6000000 cycles:    3171501 heartbeat IPC: 2.01039 cumulative IPC: 1.89185 (Simulation time: 0 hr 1 min 10 sec) 
Heartbeat CPU  1 instructions:    6000002 cycles:    3192296 heartbeat IPC: 2.11269 cumulative IPC: 1.87953 (Simulation time: 0 hr 1 min 11 sec) 
Heartbeat CPU  2 instructions:    8000000 cycles:    3376144 heartbeat IPC: 3.31705 cumulative IPC: 2.36957 (Simulation time: 0 hr 1 min 16 sec) 
Heartbeat CPU  0 instructions:    7000003 cycles:    3573581 heartbeat IPC: 2.09114 cumulative IPC: 1.95882 (Simulation time: 0 hr 1 min 21 sec) 
Heartbeat CPU  3 instructions:    7000000 cycles:    3646604 heartbeat IPC: 2.10481 cumulative IPC: 1.91959 (Simulation time: 0 hr 1 min 23 sec) 
Heartbeat CPU  1 instructions:    7000000 cycles:    3666625 heartbeat IPC: 2.10824 cumulative IPC: 1.90911 (Simulation time: 0 hr 1 min 23 sec) 
Heartbeat CPU  2 instructions:    9000002 cycles:    3677173 heartbeat IPC: 3.32195 cumulative IPC: 2.44753 (Simulation time: 0 hr 1 min 23 sec) 
Heartbeat CPU  2 instructions:   10000001 cycles:    3979008 heartbeat IPC: 3.31307 cumulative IPC: 2.51319 (Simulation time: 0 hr 1 min 32 sec) 
Heartbeat CPU  0 instructions:    8000000 cycles:    4077876 heartbeat IPC: 1.98296 cumulative IPC: 1.96181 (Simulation time: 0 hr 1 min 34 sec) 
Heartbeat CPU  3 instructions:    8000000 cycles:    4105138 heartbeat IPC: 2.18086 cumulative IPC: 1.94878 (Simulation time: 0 hr 1 min 35 sec) 
Heartbeat CPU  1 instructions:    8000000 cycles:    4120413 heartbeat IPC: 2.20367 cumulative IPC: 1.94155 (Simulation time: 0 hr 1 min 36 sec) 
Heartbeat CPU  2 instructions:   11000001 cycles:    4278906 heartbeat IPC: 3.33447 cumulative IPC: 2.57075 (Simulation time: 0 hr 1 min 40 sec) 
Heartbeat CPU  0 instructions:    9000000 cycles:    4570102 heartbeat IPC: 2.03159 cumulative IPC: 1.96932 (Simulation time: 0 hr 1 min 48 sec) 
Heartbeat CPU  2 instructions:   12000000 cycles:    4579367 heartbeat IPC: 3.32822 cumulative IPC: 2.62045 (Simulation time: 0 hr 1 min 48 sec) 
Heartbeat CPU  3 instructions:    9000003 cycles:    4592889 heartbeat IPC: 2.05023 cumulative IPC: 1.95955 (Simulation time: 0 hr 1 min 48 sec) 
Heartbeat CPU  1 instructions:    9000003 cycles:    4603084 heartbeat IPC: 2.07181 cumulative IPC: 1.95521 (Simulation time: 0 hr 1 min 49 sec) 
Heartbeat CPU  2 instructions:   13000000 cycles:    4945859 heartbeat IPC: 2.72857 cumulative IPC: 2.62846 (Simulation time: 0 hr 1 min 57 sec) 
Heartbeat CPU  0 instructions:   10000001 cycles:    5059132 heartbeat IPC: 2.04487 cumulative IPC: 1.97662 (Simulation time: 0 hr 2 min 0 sec) 
Heartbeat CPU  1 instructions:   10000003 cycles:    5068553 heartbeat IPC: 2.14837 cumulative IPC: 1.97295 (Simulation time: 0 hr 2 min 0 sec) 
Heartbeat CPU  3 instructions:   10000000 cycles:    5080693 heartbeat IPC: 2.05000 cumulative IPC: 1.96824 (Simulation time: 0 hr 2 min 0 sec) 
Heartbeat CPU  0 instructions:   11000000 cycles:    5514928 heartbeat IPC: 2.19396 cumulative IPC: 1.99459 (Simulation time: 0 hr 2 min 11 sec) 
Heartbeat CPU  2 instructions:   14000001 cycles:    5535555 heartbeat IPC: 1.69579 cumulative IPC: 2.52911 (Simulation time: 0 hr 2 min 11 sec) 
Heartbeat CPU  3 instructions:   11000003 cycles:    5544349 heartbeat IPC: 2.15678 cumulative IPC: 1.98400 (Simulation time: 0 hr 2 min 11 sec) 
Heartbeat CPU  1 instructions:   11000000 cycles:    5544857 heartbeat IPC: 2.09949 cumulative IPC: 1.98382 (Simulation time: 0 hr 2 min 11 sec) 
Heartbeat CPU  0 instructions:   12000000 cycles:    5969201 heartbeat IPC: 2.20132 cumulative IPC: 2.01032 (Simulation time: 0 hr 2 min 22 sec) 
Heartbeat CPU  3 instructions:   12000000 cycles:    5987802 heartbeat IPC: 2.25502 cumulative IPC: 2.00407 (Simulation time: 0 hr 2 min 22 sec) 
Heartbeat CPU  1 instructions:   12000000 cycles:    6018287 heartbeat IPC: 2.11224 cumulative IPC: 1.99392 (Simulation time: 0 hr 2 min 23 sec) 
Heartbeat CPU  2 instructions:   15000001 cycles:    6110287 heartbeat IPC: 1.73994 cumulative IPC: 2.45488 (Simulation time: 0 hr 2 min 25 sec) 
Heartbeat CPU  0 instructions:   13000001 cycles:    6426195 heartbeat IPC: 2.18821 cumulative IPC: 2.02297 (Simulation time: 0 hr 2 min 33 sec) 
Heartbeat CPU  3 instructions:   13000002 cycles:    6456199 heartbeat IPC: 2.13495 cumulative IPC: 2.01357 (Simulation time: 0 hr 2 min 34 sec) 
Heartbeat CPU  1 instructions:   13000001 cycles:    6515782 heartbeat IPC: 2.01007 cumulative IPC: 1.99516 (Simulation time: 0 hr 2 min 35 sec) 
Heartbeat CPU  2 instructions:   16000000 cycles:    6602804 heartbeat IPC: 2.03038 cumulative IPC: 2.42321 (Simulation time: 0 hr 2 min 37 sec) 
Heartbeat CPU  2 instructions:   17000000 cycles:    6914551 heartbeat IPC: 3.20773 cumulative IPC: 2.45858 (Simulation time: 0 hr 2 min 45 sec) 
Heartbeat CPU  0 instructions:   14000001 cycles:    6944521 heartbeat IPC: 1.92929 cumulative IPC: 2.01598 (Simulation time: 0 hr 2 min 45 sec) 
Heartbeat CPU  3 instructions:   14000003 cycles:    6983794 heartbeat IPC: 1.89540 cumulative IPC: 2.00464 (Simulation time: 0 hr 2 min 46 sec) 
Heartbeat CPU  1 instructions:   14000002 cycles:    7055188 heartbeat IPC: 1.85389 cumulative IPC: 1.98436 (Simulation time: 0 hr 2 min 48 sec) 
Heartbeat CPU  2 instructions:   18000003 cycles:    7217859 heartbeat IPC: 3.29699 cumulative IPC: 2.49381 (Simulation time: 0 hr 2 min 53 sec) 
Heartbeat CPU  0 instructions:   15000002 cycles:    7480730 heartbeat IPC: 1.86495 cumulative IPC: 2.00515 (Simulation time: 0 hr 2 min 59 sec) 
Heartbeat CPU  3 instructions:   15000002 cycles:    7496252 heartbeat IPC: 1.95138 cumulative IPC: 2.00100 (Simulation time: 0 hr 3 min 0 sec) 
Heartbeat CPU  2 instructions:   19000000 cycles:    7523516 heartbeat IPC: 3.27163 cumulative IPC: 2.52541 (Simulation time: 0 hr 3 min 0 sec) 
Heartbeat CPU  1 instructions:   15000000 cycles:    7567724 heartbeat IPC: 1.95108 cumulative IPC: 1.98210 (Simulation time: 0 hr 3 min 1 sec) 
Heartbeat CPU  2 instructions:   20000000 cycles:    7822923 heartbeat IPC: 3.33994 cumulative IPC: 2.55659 (Simulation time: 0 hr 3 min 8 sec) 
Heartbeat CPU  0 instructions:   16000000 cycles:    7967137 heartbeat IPC: 2.05589 cumulative IPC: 2.00825 (Simulation time: 0 hr 3 min 11 sec) 
Heartbeat CPU  1 instructions:   16000000 cycles:    8086443 heartbeat IPC: 1.92783 cumulative IPC: 1.97862 (Simulation time: 0 hr 3 min 14 sec) 
Heartbeat CPU  3 instructions:   16000000 cycles:    8106442 heartbeat IPC: 1.63883 cumulative IPC: 1.97374 (Simulation time: 0 hr 3 min 15 sec) 
Heartbeat CPU  2 instructions:   21000001 cycles:    8126143 heartbeat IPC: 3.29794 cumulative IPC: 2.58425 (Simulation time: 0 hr 3 min 15 sec) 
Heartbeat CPU  2 instructions:   22000003 cycles:    8422671 heartbeat IPC: 3.37237 cumulative IPC: 2.61200 (Simulation time: 0 hr 3 min 23 sec) 
Heartbeat CPU  0 instructions:   17000001 cycles:    8446850 heartbeat IPC: 2.08458 cumulative IPC: 2.01258 (Simulation time: 0 hr 3 min 24 sec) 
Heartbeat CPU  1 instructions:   17000000 cycles:    8568542 heartbeat IPC: 2.07426 cumulative IPC: 1.98400 (Simulation time: 0 hr 3 min 27 sec) 
Heartbeat CPU  3 instructions:   17000002 cycles:    8597182 heartbeat IPC: 2.03774 cumulative IPC: 1.97739 (Simulation time: 0 hr 3 min 28 sec) 
Heartbeat CPU  2 instructions:   23000002 cycles:    8722828 heartbeat IPC: 3.33159 cumulative IPC: 2.63676 (Simulation time: 0 hr 3 min 31 sec) 
Heartbeat CPU  0 instructions:   18000002 cycles:    8913671 heartbeat IPC: 2.14215 cumulative IPC: 2.01937 (Simulation time: 0 hr 3 min 36 sec) 
Heartbeat CPU  1 instructions:   18000001 cycles:    9009359 heartbeat IPC: 2.26852 cumulative IPC: 1.99792 (Simulation time: 0 hr 3 min 39 sec) 
Heartbeat CPU  2 instructions:   24000000 cycles:    9019611 heartbeat IPC: 3.36946 cumulative IPC: 2.66087 (Simulation time: 0 hr 3 min 39 sec) 
Heartbeat CPU  3 instructions:   18000003 cycles:    9098420 heartbeat IPC: 1.99506 cumulative IPC: 1.97837 (Simulation time: 0 hr 3 min 41 sec) 
Heartbeat CPU  0 instructions:   19000003 cycles:    9383735 heartbeat IPC: 2.12737 cumulative IPC: 2.02478 (Simulation time: 0 hr 3 min 48 sec) 
Heartbeat CPU  1 instructions:   19000001 cycles:    9483395 heartbeat IPC: 2.10954 cumulative IPC: 2.00350 (Simulation time: 0 hr 3 min 50 sec) 
Heartbeat CPU  2 instructions:   25000001 cycles:    9553718 heartbeat IPC: 1.87229 cumulative IPC: 2.61678 (Simulation time: 0 hr 3 min 52 sec) 
Heartbeat CPU  3 instructions:   19000003 cycles:    9587442 heartbeat IPC: 2.04490 cumulative IPC: 1.98176 (Simulation time: 0 hr 3 min 53 sec) 
Heartbeat CPU  0 instructions:   20000000 cycles:    9859802 heartbeat IPC: 2.10054 cumulative IPC: 2.02844 (Simulation time: 0 hr 3 min 59 sec) 
Heartbeat CPU  1 instructions:   20000000 cycles:    9954054 heartbeat IPC: 2.12468 cumulative IPC: 2.00923 (Simulation time: 0 hr 4 min 1 sec) 
Heartbeat CPU  3 instructions:   20000000 cycles:   10059018 heartbeat IPC: 2.12054 cumulative IPC: 1.98827 (Simulation time: 0 hr 4 min 4 sec) 
Heartbeat CPU  2 instructions:   26000003 cycles:   10162752 heartbeat IPC: 1.64195 cumulative IPC: 2.55836 (Simulation time: 0 hr 4 min 6 sec) 
Heartbeat CPU  0 instructions:   21000000 cycles:   10363470 heartbeat IPC: 1.98543 cumulative IPC: 2.02635 (Simulation time: 0 hr 4 min 11 sec) 
Heartbeat CPU  1 instructions:   21000001 cycles:   10438574 heartbeat IPC: 2.06390 cumulative IPC: 2.01177 (Simulation time: 0 hr 4 min 12 sec) 
Heartbeat CPU  3 instructions:   21000001 cycles:   10506296 heartbeat IPC: 2.23575 cumulative IPC: 1.99880 (Simulation time: 0 hr 4 min 14 sec) 
Heartbeat CPU  2 instructions:   27000000 cycles:   10754323 heartbeat IPC: 1.69041 cumulative IPC: 2.51062 (Simulation time: 0 hr 4 min 19 sec) 
Heartbeat CPU  0 instructions:   22000003 cycles:   10865836 heartbeat IPC: 1.99059 cumulative IPC: 2.02469 (Simulation time: 0 hr 4 min 22 sec) 
Heartbeat CPU  1 instructions:   22000001 cycles:   10911288 heartbeat IPC: 2.11544 cumulative IPC: 2.01626 (Simulation time: 0 hr 4 min 22 sec) 
Heartbeat CPU  3 instructions:   22000000 cycles:   10967648 heartbeat IPC: 2.16754 cumulative IPC: 2.00590 (Simulation time: 0 hr 4 min 24 sec) 
Heartbeat CPU  2 instructions:   28000000 cycles:   11345912 heartbeat IPC: 1.69036 cumulative IPC: 2.46785 (Simulation time: 0 hr 4 min 33 sec) 
Heartbeat CPU  1 instructions:   23000000 cycles:   11357418 heartbeat IPC: 2.24150 cumulative IPC: 2.02511 (Simulation time: 0 hr 4 min 33 sec) 
Heartbeat CPU  0 instructions:   23000000 cycles:   11386570 heartbeat IPC: 1.92036 cumulative IPC: 2.01992 (Simulation time: 0 hr 4 min 34 sec) 
Heartbeat CPU  3 instructions:   23000000 cycles:   11466150 heartbeat IPC: 2.00601 cumulative IPC: 2.00590 (Simulation time: 0 hr 4 min 36 sec) 
Heartbeat CPU  1 instructions:   24000000 cycles:   11802851 heartbeat IPC: 2.24501 cumulative IPC: 2.03341 (Simulation time: 0 hr 4 min 43 sec) 
Heartbeat CPU  0 instructions:   24000000 cycles:   11874168 heartbeat IPC: 2.05087 cumulative IPC: 2.02119 (Simulation time: 0 hr 4 min 45 sec) 
Heartbeat CPU  2 instructions:   29000003 cycles:   11937170 heartbeat IPC: 1.69131 cumulative IPC: 2.42939 (Simulation time: 0 hr 4 min 47 sec) 
Heartbeat CPU  3 instructions:   24000000 cycles:   11959745 heartbeat IPC: 2.02595 cumulative IPC: 2.00673 (Simulation time: 0 hr 4 min 47 sec) 
Heartbeat CPU  1 instructions:   25000001 cycles:   12356774 heartbeat IPC: 1.80531 cumulative IPC: 2.02318 (Simulation time: 0 hr 4 min 56 sec) 
Heartbeat CPU  0 instructions:   25000001 cycles:   12420679 heartbeat IPC: 1.82979 cumulative IPC: 2.01277 (Simulation time: 0 hr 4 min 57 sec) 
Heartbeat CPU  2 instructions:   30000003 cycles:   12424152 heartbeat IPC: 2.05346 cumulative IPC: 2.41465 (Simulation time: 0 hr 4 min 58 sec) 
Heartbeat CPU  3 instructions:   25000000 cycles:   12480536 heartbeat IPC: 1.92016 cumulative IPC: 2.00312 (Simulation time: 0 hr 4 min 59 sec) 
Heartbeat CPU  2 instructions:   31000000 cycles:   12738327 heartbeat IPC: 3.18293 cumulative IPC: 2.43360 (Simulation time: 0 hr 5 min 5 sec) 
Heartbeat CPU  1 instructions:   26000001 cycles:   12872546 heartbeat IPC: 1.93884 cumulative IPC: 2.01980 (Simulation time: 0 hr 5 min 9 sec) 
Heartbeat CPU  3 instructions:   26000002 cycles:   13019474 heartbeat IPC: 1.85550 cumulative IPC: 1.99701 (Simulation time: 0 hr 5 min 12 sec) 
Heartbeat CPU  0 instructions:   26000003 cycles:   13027274 heartbeat IPC: 1.64855 cumulative IPC: 1.99581 (Simulation time: 0 hr 5 min 12 sec) 
Heartbeat CPU  2 instructions:   32000000 cycles:   13046226 heartbeat IPC: 3.24782 cumulative IPC: 2.45282 (Simulation time: 0 hr 5 min 12 sec) 
Heartbeat CPU  1 instructions:   27000002 cycles:   13417915 heartbeat IPC: 1.83362 cumulative IPC: 2.01224 (Simulation time: 0 hr 5 min 21 sec) 
Heartbeat CPU  2 instructions:   33000000 cycles:   13462767 heartbeat IPC: 2.40072 cumulative IPC: 2.45120 (Simulation time: 0 hr 5 min 22 sec) 
Heartbeat CPU  3 instructions:   27000000 cycles:   13578267 heartbeat IPC: 1.78957 cumulative IPC: 1.98847 (Simulation time: 0 hr 5 min 24 sec) 
Heartbeat CPU  0 instructions:   27000001 cycles:   13672907 heartbeat IPC: 1.54886 cumulative IPC: 1.97471 (Simulation time: 0 hr 5 min 26 sec) 
Heartbeat CPU  1 instructions:   28000000 cycles:   13956355 heartbeat IPC: 1.85721 cumulative IPC: 2.00625 (Simulation time: 0 hr 5 min 32 sec) 
Heartbeat CPU  2 instructions:   34000000 cycles:   14017158 heartbeat IPC: 1.80378 cumulative IPC: 2.42560 (Simulation time: 0 hr 5 min 34 sec) 
Heartbeat CPU  3 instructions:   28000000 cycles:   14136537 heartbeat IPC: 1.79125 cumulative IPC: 1.98068 (Simulation time: 0 hr 5 min 36 sec) 
Heartbeat CPU  0 instructions:   28000000 cycles:   14231657 heartbeat IPC: 1.78971 cumulative IPC: 1.96744 (Simulation time: 0 hr 5 min 38 sec) 
Heartbeat CPU  1 instructions:   29000000 cycles:   14502955 heartbeat IPC: 1.82949 cumulative IPC: 1.99959 (Simulation time: 0 hr 5 min 44 sec) 
Heartbeat CPU  2 instructions:   35000002 cycles:   14575940 heartbeat IPC: 1.78961 cumulative IPC: 2.40122 (Simulation time: 0 hr 5 min 46 sec) 
Heartbeat CPU  3 instructions:   29000002 cycles:   14671510 heartbeat IPC: 1.86926 cumulative IPC: 1.97662 (Simulation time: 0 hr 5 min 48 sec) 
Heartbeat CPU  0 instructions:   29000001 cycles:   14772020 heartbeat IPC: 1.85061 cumulative IPC: 1.96317 (Simulation time: 0 hr 5 min 51 sec) 
Heartbeat CPU  1 instructions:   30000000 cycles:   15025006 heartbeat IPC: 1.91552 cumulative IPC: 1.99667 (Simulation time: 0 hr 5 min 56 sec) 
Heartbeat CPU  2 instructions:   36000000 cycles:   15074750 heartbeat IPC: 2.00477 cumulative IPC: 2.38810 (Simulation time: 0 hr 5 min 57 sec) 
Heartbeat CPU  3 instructions:   30000000 cycles:   15275273 heartbeat IPC: 1.65628 cumulative IPC: 1.96396 (Simulation time: 0 hr 6 min 2 sec) 
Heartbeat CPU  0 instructions:   30000002 cycles:   15307210 heartbeat IPC: 1.86850 cumulative IPC: 1.95986 (Simulation time: 0 hr 6 min 3 sec) 
Heartbeat CPU  2 instructions:   37000000 cycles:   15386242 heartbeat IPC: 3.21036 cumulative IPC: 2.40475 (Simulation time: 0 hr 6 min 5 sec) 
Heartbeat CPU  1 instructions:   31000002 cycles:   15495447 heartbeat IPC: 2.12567 cumulative IPC: 2.00059 (Simulation time: 0 hr 6 min 8 sec) 
Heartbeat CPU  2 instructions:   38000003 cycles:   15672178 heartbeat IPC: 3.49730 cumulative IPC: 2.42468 (Simulation time: 0 hr 6 min 13 sec) 
Heartbeat CPU  3 instructions:   31000003 cycles:   15742832 heartbeat IPC: 2.13877 cumulative IPC: 1.96915 (Simulation time: 0 hr 6 min 15 sec) 
Heartbeat CPU  0 instructions:   31000000 cycles:   15850505 heartbeat IPC: 1.84062 cumulative IPC: 1.95577 (Simulation time: 0 hr 6 min 18 sec) 
Heartbeat CPU  2 instructions:   39000001 cycles:   15983811 heartbeat IPC: 3.20890 cumulative IPC: 2.43997 (Simulation time: 0 hr 6 min 21 sec) 
Heartbeat CPU  1 instructions:   32000000 cycles:   15988182 heartbeat IPC: 2.02948 cumulative IPC: 2.00148 (Simulation time: 0 hr 6 min 21 sec) 
Heartbeat CPU  3 instructions:   32000000 cycles:   16211326 heartbeat IPC: 2.13449 cumulative IPC: 1.97393 (Simulation time: 0 hr 6 min 26 sec) 
Heartbeat CPU  0 instructions:   32000000 cycles:   16370413 heartbeat IPC: 1.92342 cumulative IPC: 1.95475 (Simulation time: 0 hr 6 min 30 sec) 
Heartbeat CPU  2 instructions:   40000000 cycles:   16480727 heartbeat IPC: 2.01241 cumulative IPC: 2.42708 (Simulation time: 0 hr 6 min 33 sec) 
Heartbeat CPU  1 instructions:   33000000 cycles:   16483336 heartbeat IPC: 2.01957 cumulative IPC: 2.00202 (Simulation time: 0 hr 6 min 33 sec) 
Heartbeat CPU  3 instructions:   33000000 cycles:   16700011 heartbeat IPC: 2.04631 cumulative IPC: 1.97605 (Simulation time: 0 hr 6 min 37 sec) 
Heartbeat CPU  2 instructions:   41000000 cycles:   16841835 heartbeat IPC: 2.76925 cumulative IPC: 2.43441 (Simulation time: 0 hr 6 min 41 sec) 
Heartbeat CPU  0 instructions:   33000002 cycles:   16944877 heartbeat IPC: 1.74076 cumulative IPC: 1.94749 (Simulation time: 0 hr 6 min 43 sec) 
Heartbeat CPU  1 instructions:   34000001 cycles:   17014769 heartbeat IPC: 1.88171 cumulative IPC: 1.99826 (Simulation time: 0 hr 6 min 45 sec) 
Heartbeat CPU  3 instructions:   34000001 cycles:   17230035 heartbeat IPC: 1.88671 cumulative IPC: 1.97330 (Simulation time: 0 hr 6 min 50 sec) 
Heartbeat CPU  2 instructions:   42000000 cycles:   17252450 heartbeat IPC: 2.43537 cumulative IPC: 2.43444 (Simulation time: 0 hr 6 min 50 sec) 
Heartbeat CPU  0 instructions:   34000003 cycles:   17459984 heartbeat IPC: 1.94135 cumulative IPC: 1.94731 (Simulation time: 0 hr 6 min 56 sec) 
Heartbeat CPU  2 instructions:   43000001 cycles:   17535512 heartbeat IPC: 3.53280 cumulative IPC: 2.45217 (Simulation time: 0 hr 6 min 58 sec) 
Heartbeat CPU  1 instructions:   35000003 cycles:   17542949 heartbeat IPC: 1.89330 cumulative IPC: 1.99510 (Simulation time: 0 hr 6 min 58 sec) 
Heartbeat CPU  3 instructions:   35000001 cycles:   17739429 heartbeat IPC: 1.96312 cumulative IPC: 1.97301 (Simulation time: 0 hr 7 min 3 sec) 
Heartbeat CPU  2 instructions:   44000000 cycles:   17814749 heartbeat IPC: 3.58118 cumulative IPC: 2.46986 (Simulation time: 0 hr 7 min 5 sec) 
Heartbeat CPU  0 instructions:   35000000 cycles:   17967188 heartbeat IPC: 1.97159 cumulative IPC: 1.94800 (Simulation time: 0 hr 7 min 9 sec) 
Heartbeat CPU  1 instructions:   36000000 cycles:   18071954 heartbeat IPC: 1.89034 cumulative IPC: 1.99204 (Simulation time: 0 hr 7 min 12 sec) 
Heartbeat CPU  2 instructions:   45000001 cycles:   18105131 heartbeat IPC: 3.44374 cumulative IPC: 2.48548 (Simulation time: 0 hr 7 min 13 sec) 
Heartbeat CPU  3 instructions:   36000000 cycles:   18239522 heartbeat IPC: 1.99963 cumulative IPC: 1.97374 (Simulation time: 0 hr 7 min 16 sec) 
Heartbeat CPU  2 instructions:   46000001 cycles:   18384393 heartbeat IPC: 3.58087 cumulative IPC: 2.50212 (Simulation time: 0 hr 7 min 20 sec) 
Heartbeat CPU  0 instructions:   36000000 cycles:   18526819 heartbeat IPC: 1.78689 cumulative IPC: 1.94313 (Simulation time: 0 hr 7 min 24 sec) 
Heartbeat CPU  1 instructions:   37000000 cycles:   18589050 heartbeat IPC: 1.93388 cumulative IPC: 1.99042 (Simulation time: 0 hr 7 min 25 sec) 
Heartbeat CPU  2 instructions:   47000003 cycles:   18672297 heartbeat IPC: 3.47339 cumulative IPC: 2.51710 (Simulation time: 0 hr 7 min 28 sec) 
Heartbeat CPU  3 instructions:   37000002 cycles:   18790902 heartbeat IPC: 1.81363 cumulative IPC: 1.96904 (Simulation time: 0 hr 7 min 31 sec) 
Heartbeat CPU  2 instructions:   48000000 cycles:   18962073 heartbeat IPC: 3.45093 cumulative IPC: 2.53137 (Simulation time: 0 hr 7 min 35 sec) 
Heartbeat CPU  1 instructions:   38000002 cycles:   18978664 heartbeat IPC: 2.56665 cumulative IPC: 2.00225 (Simulation time: 0 hr 7 min 36 sec) 
Heartbeat CPU  0 instructions:   37000000 cycles:   19049004 heartbeat IPC: 1.91503 cumulative IPC: 1.94236 (Simulation time: 0 hr 7 min 38 sec) 
Heartbeat CPU  2 instructions:   49000002 cycles:   19254814 heartbeat IPC: 3.41600 cumulative IPC: 2.54482 (Simulation time: 0 hr 7 min 43 sec) 
Heartbeat CPU  1 instructions:   39000003 cycles:   19308374 heartbeat IPC: 3.03297 cumulative IPC: 2.01985 (Simulation time: 0 hr 7 min 44 sec) 
Heartbeat CPU  3 instructions:   38000003 cycles:   19317352 heartbeat IPC: 1.89952 cumulative IPC: 1.96714 (Simulation time: 0 hr 7 min 45 sec) 
Heartbeat CPU  2 instructions:   50000001 cycles:   19547546 heartbeat IPC: 3.41609 cumulative IPC: 2.55787 (Simulation time: 0 hr 7 min 50 sec) 
Heartbeat CPU  0 instructions:   38000003 cycles:   19576235 heartbeat IPC: 1.89671 cumulative IPC: 1.94113 (Simulation time: 0 hr 7 min 51 sec) 
Heartbeat CPU  1 instructions:   40000000 cycles:   19833046 heartbeat IPC: 1.90595 cumulative IPC: 2.01684 (Simulation time: 0 hr 7 min 57 sec) 
Heartbeat CPU  3 instructions:   39000000 cycles:   19834011 heartbeat IPC: 1.93551 cumulative IPC: 1.96632 (Simulation time: 0 hr 7 min 57 sec) 
Heartbeat CPU  2 instructions:   51000003 cycles:   19834413 heartbeat IPC: 3.48594 cumulative IPC: 0.05042 (Simulation time: 0 hr 7 min 57 sec) 
Heartbeat CPU  0 instructions:   39000001 cycles:   20105648 heartbeat IPC: 1.88888 cumulative IPC: 1.93975 (Simulation time: 0 hr 8 min 5 sec) 
Heartbeat CPU  2 instructions:   52000000 cycles:   20121137 heartbeat IPC: 3.48766 cumulative IPC: 0.09940 (Simulation time: 0 hr 8 min 5 sec) 
Heartbeat CPU  1 instructions:   41000003 cycles:   20205906 heartbeat IPC: 2.68198 cumulative IPC: 2.02911 (Simulation time: 0 hr 8 min 7 sec) 
Heartbeat CPU  3 instructions:   40000000 cycles:   20377238 heartbeat IPC: 1.84085 cumulative IPC: 1.96297 (Simulation time: 0 hr 8 min 11 sec) 
Heartbeat CPU  2 instructions:   53000003 cycles:   20432341 heartbeat IPC: 3.21334 cumulative IPC: 0.14683 (Simulation time: 0 hr 8 min 12 sec) 
Heartbeat CPU  1 instructions:   42000003 cycles:   20692335 heartbeat IPC: 2.05580 cumulative IPC: 2.02974 (Simulation time: 0 hr 8 min 19 sec) 
Heartbeat CPU  2 instructions:   54000002 cycles:   20723036 heartbeat IPC: 3.44003 cumulative IPC: 0.19302 (Simulation time: 0 hr 8 min 19 sec) 
Heartbeat CPU  0 instructions:   40000000 cycles:   20748632 heartbeat IPC: 1.55525 cumulative IPC: 1.92784 (Simulation time: 0 hr 8 min 20 sec) 
Heartbeat CPU  3 instructions:   41000000 cycles:   20885455 heartbeat IPC: 1.96766 cumulative IPC: 1.96309 (Simulation time: 0 hr 8 min 24 sec) 
Heartbeat CPU  1 instructions:   43000001 cycles:   20991143 heartbeat IPC: 3.34662 cumulative IPC: 2.04848 (Simulation time: 0 hr 8 min 27 sec) 
Heartbeat CPU  2 instructions:   55000003 cycles:   21053016 heartbeat IPC: 3.03049 cumulative IPC: 0.23750 (Simulation time: 0 hr 8 min 29 sec) 
Heartbeat CPU  0 instructions:   41000001 cycles:   21266807 heartbeat IPC: 1.92985 cumulative IPC: 1.92789 (Simulation time: 0 hr 8 min 34 sec) 
Heartbeat CPU  1 instructions:   44000000 cycles:   21284565 heartbeat IPC: 3.40806 cumulative IPC: 2.06723 (Simulation time: 0 hr 8 min 34 sec) 
Heartbeat CPU  2 instructions:   56000000 cycles:   21352598 heartbeat IPC: 3.33797 cumulative IPC: 0.28100 (Simulation time: 0 hr 8 min 36 sec) 
Heartbeat CPU  3 instructions:   42000000 cycles:   21398133 heartbeat IPC: 1.95054 cumulative IPC: 1.96279 (Simulation time: 0 hr 8 min 37 sec) 
Heartbeat CPU  1 instructions:   45000002 cycles:   21571996 heartbeat IPC: 3.47910 cumulative IPC: 2.08604 (Simulation time: 0 hr 8 min 42 sec) 
Heartbeat CPU  2 instructions:   57000000 cycles:   21640097 heartbeat IPC: 3.47827 cumulative IPC: 0.32347 (Simulation time: 0 hr 8 min 44 sec) 
Heartbeat CPU  3 instructions:   43000003 cycles:   21742764 heartbeat IPC: 2.90166 cumulative IPC: 1.97767 (Simulation time: 0 hr 8 min 47 sec) 
Heartbeat CPU  0 instructions:   42000000 cycles:   21776323 heartbeat IPC: 1.96264 cumulative IPC: 1.92870 (Simulation time: 0 hr 8 min 48 sec) 
Heartbeat CPU  1 instructions:   46000003 cycles:   21922601 heartbeat IPC: 2.85222 cumulative IPC: 2.09829 (Simulation time: 0 hr 8 min 52 sec) 
Heartbeat CPU  2 instructions:   58000003 cycles:   21998210 heartbeat IPC: 2.79242 cumulative IPC: 0.36367 (Simulation time: 0 hr 8 min 54 sec) 
Heartbeat CPU  3 instructions:   44000000 cycles:   22025111 heartbeat IPC: 3.54173 cumulative IPC: 1.99772 (Simulation time: 0 hr 8 min 55 sec) 
Heartbeat CPU  0 instructions:   43000001 cycles:   22262231 heartbeat IPC: 2.05800 cumulative IPC: 1.93152 (Simulation time: 0 hr 9 min 0 sec) 
Heartbeat CPU  3 instructions:   45000000 cycles:   22302914 heartbeat IPC: 3.59967 cumulative IPC: 2.01767 (Simulation time: 0 hr 9 min 1 sec) 
Heartbeat CPU  1 instructions:   47000002 cycles:   22416039 heartbeat IPC: 2.02660 cumulative IPC: 2.09671 (Simulation time: 0 hr 9 min 4 sec) 
Heartbeat CPU  3 instructions:   46000000 cycles:   22574237 heartbeat IPC: 3.68564 cumulative IPC: 2.03772 (Simulation time: 0 hr 9 min 9 sec) 
Heartbeat CPU  2 instructions:   59000001 cycles:   22627719 heartbeat IPC: 1.58854 cumulative IPC: 0.39774 (Simulation time: 0 hr 9 min 10 sec) 
Heartbeat CPU  0 instructions:   44000000 cycles:   22743294 heartbeat IPC: 2.07873 cumulative IPC: 1.93464 (Simulation time: 0 hr 9 min 13 sec) 
Heartbeat CPU  3 instructions:   47000003 cycles:   22842139 heartbeat IPC: 3.73272 cumulative IPC: 2.05760 (Simulation time: 0 hr 9 min 16 sec) 
Heartbeat CPU  1 instructions:   48000000 cycles:   22898301 heartbeat IPC: 2.07356 cumulative IPC: 2.09623 (Simulation time: 0 hr 9 min 17 sec) 
Heartbeat CPU  3 instructions:   48000000 cycles:   23107954 heartbeat IPC: 3.76200 cumulative IPC: 2.07721 (Simulation time: 0 hr 9 min 23 sec) 
Heartbeat CPU  0 instructions:   45000000 cycles:   23218420 heartbeat IPC: 2.10470 cumulative IPC: 1.93812 (Simulation time: 0 hr 9 min 26 sec) 
Heartbeat CPU  2 instructions:   60000000 cycles:   23229231 heartbeat IPC: 1.66248 cumulative IPC: 0.43049 (Simulation time: 0 hr 9 min 26 sec) 
Heartbeat CPU  3 instructions:   49000001 cycles:   23374655 heartbeat IPC: 3.74952 cumulative IPC: 2.09629 (Simulation time: 0 hr 9 min 30 sec) 
Heartbeat CPU  1 instructions:   49000003 cycles:   23411312 heartbeat IPC: 1.94928 cumulative IPC: 2.09301 (Simulation time: 0 hr 9 min 31 sec) 
Heartbeat CPU  3 instructions:   50000001 cycles:   23641172 heartbeat IPC: 3.75211 cumulative IPC: 2.11495 (Simulation time: 0 hr 9 min 36 sec) 
Heartbeat CPU  0 instructions:   46000003 cycles:   23733766 heartbeat IPC: 1.94045 cumulative IPC: 1.93817 (Simulation time: 0 hr 9 min 39 sec) 
Heartbeat CPU  2 instructions:   61000000 cycles:   23810225 heartbeat IPC: 1.72119 cumulative IPC: 0.46199 (Simulation time: 0 hr 9 min 41 sec) 
Heartbeat CPU  3 instructions:   51000000 cycles:   23906693 heartbeat IPC: 3.76618 cumulative IPC: 0.04183 (Simulation time: 0 hr 9 min 43 sec) 
Heartbeat CPU  1 instructions:   50000000 cycles:   23918138 heartbeat IPC: 1.97306 cumulative IPC: 2.09046 (Simulation time: 0 hr 9 min 44 sec) 
Heartbeat CPU  3 instructions:   52000000 cycles:   24172513 heartbeat IPC: 3.76194 cumulative IPC: 0.08274 (Simulation time: 0 hr 9 min 50 sec) 
Heartbeat CPU  0 instructions:   47000000 cycles:   24212163 heartbeat IPC: 2.09031 cumulative IPC: 1.94117 (Simulation time: 0 hr 9 min 51 sec) 
Heartbeat CPU  2 instructions:   62000002 cycles:   24262666 heartbeat IPC: 2.21024 cumulative IPC: 0.49459 (Simulation time: 0 hr 9 min 53 sec) 
Heartbeat CPU  1 instructions:   51000002 cycles:   24409765 heartbeat IPC: 2.03407 cumulative IPC: 0.04097 (Simulation time: 0 hr 9 min 57 sec) 
Heartbeat CPU  3 instructions:   53000000 cycles:   24443716 heartbeat IPC: 3.68727 cumulative IPC: 0.12273 (Simulation time: 0 hr 9 min 58 sec) 
Heartbeat CPU  2 instructions:   63000000 cycles:   24562267 heartbeat IPC: 3.33777 cumulative IPC: 0.52927 (Simulation time: 0 hr 10 min 1 sec) 
Heartbeat CPU  3 instructions:   54000002 cycles:   24713009 heartbeat IPC: 3.71343 cumulative IPC: 0.16186 (Simulation time: 0 hr 10 min 6 sec) 
Heartbeat CPU  0 instructions:   48000000 cycles:   24728893 heartbeat IPC: 1.93525 cumulative IPC: 1.94105 (Simulation time: 0 hr 10 min 6 sec) 
Heartbeat CPU  2 instructions:   64000000 cycles:   24862132 heartbeat IPC: 3.33483 cumulative IPC: 0.56311 (Simulation time: 0 hr 10 min 10 sec) 
Heartbeat CPU  1 instructions:   52000000 cycles:   24885729 heartbeat IPC: 2.10100 cumulative IPC: 0.08037 (Simulation time: 0 hr 10 min 11 sec) 
Heartbeat CPU  3 instructions:   55000002 cycles:   24981892 heartbeat IPC: 3.71909 cumulative IPC: 0.20015 (Simulation time: 0 hr 10 min 14 sec) 
Heartbeat CPU  2 instructions:   65000003 cycles:   25160920 heartbeat IPC: 3.34686 cumulative IPC: 0.59616 (Simulation time: 0 hr 10 min 19 sec) 
Heartbeat CPU  0 instructions:   49000000 cycles:   25223708 heartbeat IPC: 2.02096 cumulative IPC: 1.94262 (Simulation time: 0 hr 10 min 20 sec) 
Heartbeat CPU  3 instructions:   56000000 cycles:   25248753 heartbeat IPC: 3.74726 cumulative IPC: 0.23764 (Simulation time: 0 hr 10 min 21 sec) 
Heartbeat CPU  1 instructions:   53000002 cycles:   25445828 heartbeat IPC: 1.78540 cumulative IPC: 0.11790 (Simulation time: 0 hr 10 min 26 sec) 
Heartbeat CPU  3 instructions:   57000000 cycles:   25517890 heartbeat IPC: 3.71558 cumulative IPC: 0.27432 (Simulation time: 0 hr 10 min 28 sec) 
Heartbeat CPU  2 instructions:   66000000 cycles:   25654052 heartbeat IPC: 2.02785 cumulative IPC: 0.62368 (Simulation time: 0 hr 10 min 32 sec) 
Heartbeat CPU  0 instructions:   50000002 cycles:   25711786 heartbeat IPC: 2.04886 cumulative IPC: 1.94463 (Simulation time: 0 hr 10 min 33 sec) 

Warmup complete CPU  0 instructions:   50000002 cycles:   25711786 (Simulation time: 0 hr 10 min 33 sec) 
Warmup complete CPU  1 instructions:   53577158 cycles:   25711786 (Simulation time: 0 hr 10 min 33 sec) 
Warmup complete CPU  2 instructions:   66091826 cycles:   25711785 (Simulation time: 0 hr 10 min 33 sec) 
Warmup complete CPU  3 instructions:   57723896 cycles:   25711785 (Simulation time: 0 hr 10 min 33 sec) 

Heartbeat CPU  3 instructions:   58000001 cycles:   26469432 heartbeat IPC: 1.05093 cumulative IPC: 0.36442 (Simulation time: 0 hr 10 min 36 sec) 
Heartbeat CPU  1 instructions:   54000003 cycles:   27689655 heartbeat IPC: 0.44567 cumulative IPC: 0.21379 (Simulation time: 0 hr 10 min 40 sec) 
Heartbeat CPU  0 instructions:   51000003 cycles:   30315269 heartbeat IPC: 0.21723 cumulative IPC: 0.21723 (Simulation time: 0 hr 10 min 48 sec) 
Heartbeat CPU  2 instructions:   67000003 cycles:   31089363 heartbeat IPC: 0.18398 cumulative IPC: 0.16888 (Simulation time: 0 hr 10 min 51 sec) 
Heartbeat CPU  3 instructions:   59000000 cycles:   31096927 heartbeat IPC: 0.21610 cumulative IPC: 0.23697 (Simulation time: 0 hr 10 min 51 sec) 
Heartbeat CPU  1 instructions:   55000001 cycles:   32323677 heartbeat IPC: 0.21579 cumulative IPC: 0.21519 (Simulation time: 0 hr 10 min 55 sec) 
Heartbeat CPU  0 instructions:   52000000 cycles:   35039204 heartbeat IPC: 0.21169 cumulative IPC: 0.21442 (Simulation time: 0 hr 11 min 3 sec) 
Heartbeat CPU  3 instructions:   60000000 cycles:   35622712 heartbeat IPC: 0.22096 cumulative IPC: 0.22966 (Simulation time: 0 hr 11 min 5 sec) 
Heartbeat CPU  1 instructions:   56000000 cycles:   36901240 heartbeat IPC: 0.21846 cumulative IPC: 0.21653 (Simulation time: 0 hr 11 min 9 sec) 
Heartbeat CPU  2 instructions:   68000000 cycles:   36945615 heartbeat IPC: 0.17076 cumulative IPC: 0.16986 (Simulation time: 0 hr 11 min 9 sec) 
Heartbeat CPU  3 instructions:   61000001 cycles:   39649102 heartbeat IPC: 0.24836 cumulative IPC: 0.23506 (Simulation time: 0 hr 11 min 18 sec) 
Heartbeat CPU  0 instructions:   53000000 cycles:   39945518 heartbeat IPC: 0.20382 cumulative IPC: 0.21077 (Simulation time: 0 hr 11 min 19 sec) 
Heartbeat CPU  1 instructions:   57000002 cycles:   41555090 heartbeat IPC: 0.21488 cumulative IPC: 0.21604 (Simulation time: 0 hr 11 min 23 sec) 
Heartbeat CPU  3 instructions:   62000001 cycles:   42499301 heartbeat IPC: 0.35085 cumulative IPC: 0.25472 (Simulation time: 0 hr 11 min 26 sec) 
Heartbeat CPU  2 instructions:   69000003 cycles:   42806450 heartbeat IPC: 0.17062 cumulative IPC: 0.17012 (Simulation time: 0 hr 11 min 28 sec) 
Heartbeat CPU  0 instructions:   54000001 cycles:   44660421 heartbeat IPC: 0.21209 cumulative IPC: 0.21110 (Simulation time: 0 hr 11 min 34 sec) 
Heartbeat CPU  3 instructions:   63000002 cycles:   44690470 heartbeat IPC: 0.45638 cumulative IPC: 0.27800 (Simulation time: 0 hr 11 min 34 sec) 
Heartbeat CPU  1 instructions:   58000000 cycles:   46146589 heartbeat IPC: 0.21779 cumulative IPC: 0.21644 (Simulation time: 0 hr 11 min 39 sec) 
Heartbeat CPU  2 instructions:   70000002 cycles:   48662914 heartbeat IPC: 0.17075 cumulative IPC: 0.17028 (Simulation time: 0 hr 11 min 47 sec) 
Heartbeat CPU  3 instructions:   64000000 cycles:   49264317 heartbeat IPC: 0.21863 cumulative IPC: 0.26647 (Simulation time: 0 hr 11 min 49 sec) 
Heartbeat CPU  0 instructions:   55000000 cycles:   49384638 heartbeat IPC: 0.21168 cumulative IPC: 0.21121 (Simulation time: 0 hr 11 min 49 sec) 
Heartbeat CPU  1 instructions:   59000002 cycles:   50849049 heartbeat IPC: 0.21266 cumulative IPC: 0.21573 (Simulation time: 0 hr 11 min 53 sec) 
Heartbeat CPU  3 instructions:   65000001 cycles:   52191125 heartbeat IPC: 0.34167 cumulative IPC: 0.27478 (Simulation time: 0 hr 11 min 58 sec) 
Heartbeat CPU  2 instructions:   71000002 cycles:   53351940 heartbeat IPC: 0.21326 cumulative IPC: 0.17757 (Simulation time: 0 hr 12 min 3 sec) 
Heartbeat CPU  0 instructions:   56000000 cycles:   54045425 heartbeat IPC: 0.21456 cumulative IPC: 0.21176 (Simulation time: 0 hr 12 min 6 sec) 
Heartbeat CPU  3 instructions:   66000001 cycles:   55052487 heartbeat IPC: 0.34948 cumulative IPC: 0.28207 (Simulation time: 0 hr 12 min 9 sec) 
Heartbeat CPU  1 instructions:   60000000 cycles:   55441980 heartbeat IPC: 0.21773 cumulative IPC: 0.21604 (Simulation time: 0 hr 12 min 10 sec) 
Heartbeat CPU  2 instructions:   72000000 cycles:   57689098 heartbeat IPC: 0.23057 cumulative IPC: 0.18476 (Simulation time: 0 hr 12 min 18 sec) 
Heartbeat CPU  0 instructions:   57000001 cycles:   58717893 heartbeat IPC: 0.21402 cumulative IPC: 0.21208 (Simulation time: 0 hr 12 min 22 sec) 
Heartbeat CPU  1 instructions:   61000000 cycles:   59372962 heartbeat IPC: 0.25439 cumulative IPC: 0.22052 (Simulation time: 0 hr 12 min 24 sec) 
Heartbeat CPU  2 instructions:   73000003 cycles:   59628723 heartbeat IPC: 0.51557 cumulative IPC: 0.20368 (Simulation time: 0 hr 12 min 25 sec) 
Heartbeat CPU  3 instructions:   67000001 cycles:   59669240 heartbeat IPC: 0.21660 cumulative IPC: 0.27317 (Simulation time: 0 hr 12 min 25 sec) 
Heartbeat CPU  2 instructions:   74000002 cycles:   61452826 heartbeat IPC: 0.54821 cumulative IPC: 0.22126 (Simulation time: 0 hr 12 min 32 sec) 
Heartbeat CPU  1 instructions:   62000002 cycles:   62237840 heartbeat IPC: 0.34906 cumulative IPC: 0.23060 (Simulation time: 0 hr 12 min 37 sec) 
Heartbeat CPU  0 instructions:   58000001 cycles:   63416915 heartbeat IPC: 0.21281 cumulative IPC: 0.21217 (Simulation time: 0 hr 12 min 42 sec) 
Heartbeat CPU  2 instructions:   75000001 cycles:   64178604 heartbeat IPC: 0.36687 cumulative IPC: 0.23158 (Simulation time: 0 hr 12 min 44 sec) 
Heartbeat CPU  1 instructions:   63000001 cycles:   64463595 heartbeat IPC: 0.44929 cumulative IPC: 0.24316 (Simulation time: 0 hr 12 min 45 sec) 
Heartbeat CPU  3 instructions:   68000000 cycles:   64596742 heartbeat IPC: 0.20294 cumulative IPC: 0.26427 (Simulation time: 0 hr 12 min 46 sec) 
Heartbeat CPU  2 instructions:   76000000 cycles:   66998144 heartbeat IPC: 0.35467 cumulative IPC: 0.23999 (Simulation time: 0 hr 12 min 55 sec) 
Heartbeat CPU  0 instructions:   59000000 cycles:   67912246 heartbeat IPC: 0.22245 cumulative IPC: 0.21327 (Simulation time: 0 hr 12 min 57 sec) 
Heartbeat CPU  1 instructions:   64000000 cycles:   68827072 heartbeat IPC: 0.22917 cumulative IPC: 0.24174 (Simulation time: 0 hr 13 min 0 sec) 
Heartbeat CPU  3 instructions:   69000000 cycles:   69387811 heartbeat IPC: 0.20872 cumulative IPC: 0.25818 (Simulation time: 0 hr 13 min 2 sec) 
Heartbeat CPU  1 instructions:   65000001 cycles:   71519202 heartbeat IPC: 0.37145 cumulative IPC: 0.24937 (Simulation time: 0 hr 13 min 10 sec) 
Heartbeat CPU  0 instructions:   60000000 cycles:   72533317 heartbeat IPC: 0.21640 cumulative IPC: 0.21358 (Simulation time: 0 hr 13 min 14 sec) 
Heartbeat CPU  2 instructions:   77000000 cycles:   72625443 heartbeat IPC: 0.17771 cumulative IPC: 0.23252 (Simulation time: 0 hr 13 min 14 sec) 
Heartbeat CPU  1 instructions:   66000002 cycles:   74033802 heartbeat IPC: 0.39768 cumulative IPC: 0.25708 (Simulation time: 0 hr 13 min 18 sec) 
Heartbeat CPU  3 instructions:   70000000 cycles:   74074878 heartbeat IPC: 0.21335 cumulative IPC: 0.25383 (Simulation time: 0 hr 13 min 19 sec) 
Heartbeat CPU  0 instructions:   61000001 cycles:   76747184 heartbeat IPC: 0.23731 cumulative IPC: 0.21554 (Simulation time: 0 hr 13 min 27 sec) 
Heartbeat CPU  2 instructions:   78000000 cycles:   78301266 heartbeat IPC: 0.17619 cumulative IPC: 0.22644 (Simulation time: 0 hr 13 min 32 sec) 
Heartbeat CPU  3 instructions:   71000000 cycles:   78735075 heartbeat IPC: 0.21458 cumulative IPC: 0.25038 (Simulation time: 0 hr 13 min 34 sec) 
Heartbeat CPU  1 instructions:   67000000 cycles:   78791811 heartbeat IPC: 0.21017 cumulative IPC: 0.25288 (Simulation time: 0 hr 13 min 34 sec) 
Heartbeat CPU  0 instructions:   62000001 cycles:   81250739 heartbeat IPC: 0.22205 cumulative IPC: 0.21606 (Simulation time: 0 hr 13 min 40 sec) 
Heartbeat CPU  3 instructions:   72000000 cycles:   83396733 heartbeat IPC: 0.21452 cumulative IPC: 0.24748 (Simulation time: 0 hr 13 min 47 sec) 
Heartbeat CPU  1 instructions:   68000000 cycles:   83456002 heartbeat IPC: 0.21440 cumulative IPC: 0.24977 (Simulation time: 0 hr 13 min 47 sec) 
Heartbeat CPU  2 instructions:   79000001 cycles:   84159194 heartbeat IPC: 0.17071 cumulative IPC: 0.22085 (Simulation time: 0 hr 13 min 49 sec) 
Heartbeat CPU  0 instructions:   63000002 cycles:   86040443 heartbeat IPC: 0.20878 cumulative IPC: 0.21549 (Simulation time: 0 hr 13 min 55 sec) 
Heartbeat CPU  3 instructions:   73000000 cycles:   87536025 heartbeat IPC: 0.24159 cumulative IPC: 0.24709 (Simulation time: 0 hr 14 min 0 sec) 
Heartbeat CPU  1 instructions:   69000001 cycles:   88143992 heartbeat IPC: 0.21331 cumulative IPC: 0.24703 (Simulation time: 0 hr 14 min 2 sec) 
Heartbeat CPU  2 instructions:   80000000 cycles:   89950411 heartbeat IPC: 0.17268 cumulative IPC: 0.21651 (Simulation time: 0 hr 14 min 8 sec) 
Heartbeat CPU  0 instructions:   64000000 cycles:   90806068 heartbeat IPC: 0.20984 cumulative IPC: 0.21507 (Simulation time: 0 hr 14 min 11 sec) 
Heartbeat CPU  3 instructions:   74000003 cycles:   92194271 heartbeat IPC: 0.21467 cumulative IPC: 0.24482 (Simulation time: 0 hr 14 min 14 sec) 
Heartbeat CPU  1 instructions:   70000002 cycles:   92749448 heartbeat IPC: 0.21713 cumulative IPC: 0.24498 (Simulation time: 0 hr 14 min 17 sec) 
Heartbeat CPU  3 instructions:   75000000 cycles:   94856473 heartbeat IPC: 0.37563 cumulative IPC: 0.24985 (Simulation time: 0 hr 14 min 24 sec) 
Heartbeat CPU  0 instructions:   65000002 cycles:   95637533 heartbeat IPC: 0.20698 cumulative IPC: 0.21451 (Simulation time: 0 hr 14 min 26 sec) 
Heartbeat CPU  2 instructions:   81000001 cycles:   95717977 heartbeat IPC: 0.17338 cumulative IPC: 0.21296 (Simulation time: 0 hr 14 min 27 sec) 
Heartbeat CPU  1 instructions:   71000002 cycles:   97296633 heartbeat IPC: 0.21992 cumulative IPC: 0.24339 (Simulation time: 0 hr 14 min 31 sec) 
Heartbeat CPU  3 instructions:   76000000 cycles:   99639139 heartbeat IPC: 0.20909 cumulative IPC: 0.24722 (Simulation time: 0 hr 14 min 38 sec) 
Heartbeat CPU  0 instructions:   66000001 cycles:  100411771 heartbeat IPC: 0.20946 cumulative IPC: 0.21419 (Simulation time: 0 hr 14 min 40 sec) 
Heartbeat CPU  2 instructions:   82000000 cycles:  101537683 heartbeat IPC: 0.17183 cumulative IPC: 0.20980 (Simulation time: 0 hr 14 min 44 sec) 
Heartbeat CPU  1 instructions:   72000000 cycles:  101793564 heartbeat IPC: 0.22237 cumulative IPC: 0.24215 (Simulation time: 0 hr 14 min 44 sec) 
Heartbeat CPU  3 instructions:   77000000 cycles:  104227156 heartbeat IPC: 0.21796 cumulative IPC: 0.24551 (Simulation time: 0 hr 14 min 52 sec) 
Heartbeat CPU  0 instructions:   67000002 cycles:  105267967 heartbeat IPC: 0.20592 cumulative IPC: 0.21369 (Simulation time: 0 hr 14 min 55 sec) 
Heartbeat CPU  1 instructions:   73000002 cycles:  106438892 heartbeat IPC: 0.21527 cumulative IPC: 0.24060 (Simulation time: 0 hr 14 min 59 sec) 
Heartbeat CPU  2 instructions:   83000003 cycles:  107369652 heartbeat IPC: 0.17147 cumulative IPC: 0.20706 (Simulation time: 0 hr 15 min 2 sec) 
Heartbeat CPU  3 instructions:   78000002 cycles:  109036911 heartbeat IPC: 0.20791 cumulative IPC: 0.24334 (Simulation time: 0 hr 15 min 7 sec) 
Heartbeat CPU  0 instructions:   68000000 cycles:  110004752 heartbeat IPC: 0.21111 cumulative IPC: 0.21354 (Simulation time: 0 hr 15 min 10 sec) 
Heartbeat CPU  1 instructions:   74000000 cycles:  111135589 heartbeat IPC: 0.21292 cumulative IPC: 0.23908 (Simulation time: 0 hr 15 min 14 sec) 
Heartbeat CPU  2 instructions:   84000000 cycles:  113176087 heartbeat IPC: 0.17222 cumulative IPC: 0.20475 (Simulation time: 0 hr 15 min 20 sec) 
Heartbeat CPU  3 instructions:   79000002 cycles:  113566929 heartbeat IPC: 0.22075 cumulative IPC: 0.24217 (Simulation time: 0 hr 15 min 22 sec) 
Heartbeat CPU  0 instructions:   69000002 cycles:  114788543 heartbeat IPC: 0.20904 cumulative IPC: 0.21330 (Simulation time: 0 hr 15 min 25 sec) 
Heartbeat CPU  1 instructions:   75000000 cycles:  115748264 heartbeat IPC: 0.21679 cumulative IPC: 0.23794 (Simulation time: 0 hr 15 min 28 sec) 
Heartbeat CPU  3 instructions:   80000000 cycles:  118369133 heartbeat IPC: 0.20824 cumulative IPC: 0.24041 (Simulation time: 0 hr 15 min 37 sec) 
Heartbeat CPU  2 instructions:   85000001 cycles:  119053226 heartbeat IPC: 0.17015 cumulative IPC: 0.20257 (Simulation time: 0 hr 15 min 39 sec) 
Heartbeat CPU  0 instructions:   70000001 cycles:  119581319 heartbeat IPC: 0.20865 cumulative IPC: 0.21306 (Simulation time: 0 hr 15 min 40 sec) 
Heartbeat CPU  1 instructions:   76000000 cycles:  119738154 heartbeat IPC: 0.25063 cumulative IPC: 0.23847 (Simulation time: 0 hr 15 min 41 sec) 
Heartbeat CPU  3 instructions:   81000003 cycles:  123211460 heartbeat IPC: 0.20651 cumulative IPC: 0.23873 (Simulation time: 0 hr 15 min 52 sec) 
Heartbeat CPU  0 instructions:   71000001 cycles:  124276220 heartbeat IPC: 0.21300 cumulative IPC: 0.21306 (Simulation time: 0 hr 15 min 55 sec) 
Heartbeat CPU  1 instructions:   77000001 cycles:  124422183 heartbeat IPC: 0.21349 cumulative IPC: 0.23729 (Simulation time: 0 hr 15 min 56 sec) 
Heartbeat CPU  2 instructions:   86000003 cycles:  124861063 heartbeat IPC: 0.17218 cumulative IPC: 0.20079 (Simulation time: 0 hr 15 min 57 sec) 
Heartbeat CPU  3 instructions:   82000003 cycles:  127936118 heartbeat IPC: 0.21166 cumulative IPC: 0.23748 (Simulation time: 0 hr 16 min 8 sec) 
Heartbeat CPU  0 instructions:   72000000 cycles:  128918244 heartbeat IPC: 0.21542 cumulative IPC: 0.21316 (Simulation time: 0 hr 16 min 12 sec) 
Heartbeat CPU  1 instructions:   78000003 cycles:  129084173 heartbeat IPC: 0.21450 cumulative IPC: 0.23626 (Simulation time: 0 hr 16 min 12 sec) 
Heartbeat CPU  2 instructions:   87000000 cycles:  130690283 heartbeat IPC: 0.17155 cumulative IPC: 0.19917 (Simulation time: 0 hr 16 min 17 sec) 
Heartbeat CPU  3 instructions:   83000001 cycles:  132650067 heartbeat IPC: 0.21214 cumulative IPC: 0.23636 (Simulation time: 0 hr 16 min 23 sec) 
Heartbeat CPU  0 instructions:   73000002 cycles:  133526138 heartbeat IPC: 0.21702 cumulative IPC: 0.21333 (Simulation time: 0 hr 16 min 26 sec) 
Heartbeat CPU  1 instructions:   79000002 cycles:  133717605 heartbeat IPC: 0.21582 cumulative IPC: 0.23538 (Simulation time: 0 hr 16 min 26 sec) 
Heartbeat CPU  2 instructions:   88000000 cycles:  136652222 heartbeat IPC: 0.16773 cumulative IPC: 0.19748 (Simulation time: 0 hr 16 min 35 sec) 
Heartbeat CPU  3 instructions:   84000000 cycles:  137573833 heartbeat IPC: 0.20310 cumulative IPC: 0.23490 (Simulation time: 0 hr 16 min 38 sec) 
Heartbeat CPU  0 instructions:   74000000 cycles:  138004750 heartbeat IPC: 0.22328 cumulative IPC: 0.21373 (Simulation time: 0 hr 16 min 40 sec) 
Heartbeat CPU  1 instructions:   80000000 cycles:  138419915 heartbeat IPC: 0.21266 cumulative IPC: 0.23444 (Simulation time: 0 hr 16 min 41 sec) 
Heartbeat CPU  3 instructions:   85000000 cycles:  142477366 heartbeat IPC: 0.20393 cumulative IPC: 0.23360 (Simulation time: 0 hr 16 min 54 sec) 
Heartbeat CPU  2 instructions:   89000000 cycles:  142569697 heartbeat IPC: 0.16899 cumulative IPC: 0.19603 (Simulation time: 0 hr 16 min 54 sec) 
Heartbeat CPU  0 instructions:   75000002 cycles:  142720358 heartbeat IPC: 0.21206 cumulative IPC: 0.21366 (Simulation time: 0 hr 16 min 54 sec) 
Heartbeat CPU  1 instructions:   81000000 cycles:  143222191 heartbeat IPC: 0.20823 cumulative IPC: 0.23337 (Simulation time: 0 hr 16 min 56 sec) 
Heartbeat CPU  3 instructions:   86000000 cycles:  147279096 heartbeat IPC: 0.20826 cumulative IPC: 0.23260 (Simulation time: 0 hr 17 min 8 sec) 
Heartbeat CPU  0 instructions:   76000000 cycles:  147327428 heartbeat IPC: 0.21706 cumulative IPC: 0.21379 (Simulation time: 0 hr 17 min 8 sec) 
Heartbeat CPU  1 instructions:   82000003 cycles:  147893448 heartbeat IPC: 0.21408 cumulative IPC: 0.23263 (Simulation time: 0 hr 17 min 10 sec) 
Heartbeat CPU  2 instructions:   90000000 cycles:  148296195 heartbeat IPC: 0.17463 cumulative IPC: 0.19503 (Simulation time: 0 hr 17 min 11 sec) 
Heartbeat CPU  0 instructions:   77000002 cycles:  151837678 heartbeat IPC: 0.22172 cumulative IPC: 0.21407 (Simulation time: 0 hr 17 min 23 sec) 
Heartbeat CPU  3 instructions:   87000002 cycles:  152046127 heartbeat IPC: 0.20977 cumulative IPC: 0.23174 (Simulation time: 0 hr 17 min 24 sec) 
Heartbeat CPU  1 instructions:   83000002 cycles:  152849280 heartbeat IPC: 0.20178 cumulative IPC: 0.23143 (Simulation time: 0 hr 17 min 26 sec) 
Heartbeat CPU  2 instructions:   91000003 cycles:  154226709 heartbeat IPC: 0.16862 cumulative IPC: 0.19382 (Simulation time: 0 hr 17 min 30 sec) 
Heartbeat CPU  0 instructions:   78000001 cycles:  156649880 heartbeat IPC: 0.20780 cumulative IPC: 0.21384 (Simulation time: 0 hr 17 min 38 sec) 
Heartbeat CPU  3 instructions:   88000000 cycles:  156900553 heartbeat IPC: 0.20600 cumulative IPC: 0.23078 (Simulation time: 0 hr 17 min 39 sec) 
Heartbeat CPU  1 instructions:   84000000 cycles:  157663956 heartbeat IPC: 0.20770 cumulative IPC: 0.23056 (Simulation time: 0 hr 17 min 41 sec) 
Heartbeat CPU  2 instructions:   92000000 cycles:  160120223 heartbeat IPC: 0.16968 cumulative IPC: 0.19276 (Simulation time: 0 hr 17 min 49 sec) 
Heartbeat CPU  0 instructions:   79000002 cycles:  161393011 heartbeat IPC: 0.21083 cumulative IPC: 0.21374 (Simulation time: 0 hr 17 min 53 sec) 
Heartbeat CPU  3 instructions:   89000000 cycles:  161455326 heartbeat IPC: 0.21955 cumulative IPC: 0.23041 (Simulation time: 0 hr 17 min 53 sec) 
Heartbeat CPU  1 instructions:   85000000 cycles:  162598301 heartbeat IPC: 0.20266 cumulative IPC: 0.22955 (Simulation time: 0 hr 17 min 57 sec) 
Heartbeat CPU  2 instructions:   93000000 cycles:  166047450 heartbeat IPC: 0.16871 cumulative IPC: 0.19174 (Simulation time: 0 hr 18 min 8 sec) 
Heartbeat CPU  0 instructions:   80000000 cycles:  166087670 heartbeat IPC: 0.21301 cumulative IPC: 0.21371 (Simulation time: 0 hr 18 min 8 sec) 
Heartbeat CPU  3 instructions:   90000002 cycles:  166127588 heartbeat IPC: 0.21403 cumulative IPC: 0.22986 (Simulation time: 0 hr 18 min 8 sec) 
Heartbeat CPU  1 instructions:   86000002 cycles:  167315132 heartbeat IPC: 0.21201 cumulative IPC: 0.22897 (Simulation time: 0 hr 18 min 12 sec) 
Heartbeat CPU  0 instructions:   81000002 cycles:  170791497 heartbeat IPC: 0.21259 cumulative IPC: 0.21368 (Simulation time: 0 hr 18 min 23 sec) 
Heartbeat CPU  3 instructions:   91000001 cycles:  170857577 heartbeat IPC: 0.21142 cumulative IPC: 0.22926 (Simulation time: 0 hr 18 min 23 sec) 
Heartbeat CPU  2 instructions:   94000001 cycles:  171906581 heartbeat IPC: 0.17067 cumulative IPC: 0.19090 (Simulation time: 0 hr 18 min 26 sec) 
Heartbeat CPU  1 instructions:   87000001 cycles:  172020674 heartbeat IPC: 0.21252 cumulative IPC: 0.22844 (Simulation time: 0 hr 18 min 26 sec) 
Heartbeat CPU  0 instructions:   82000000 cycles:  175534753 heartbeat IPC: 0.21083 cumulative IPC: 0.21359 (Simulation time: 0 hr 18 min 37 sec) 
Heartbeat CPU  3 instructions:   92000000 cycles:  175590721 heartbeat IPC: 0.21128 cumulative IPC: 0.22869 (Simulation time: 0 hr 18 min 38 sec) 
Heartbeat CPU  1 instructions:   88000000 cycles:  176707439 heartbeat IPC: 0.21337 cumulative IPC: 0.22797 (Simulation time: 0 hr 18 min 41 sec) 
Heartbeat CPU  2 instructions:   95000000 cycles:  177770002 heartbeat IPC: 0.17055 cumulative IPC: 0.19011 (Simulation time: 0 hr 18 min 45 sec) 
Heartbeat CPU  3 instructions:   93000000 cycles:  180276318 heartbeat IPC: 0.21342 cumulative IPC: 0.22823 (Simulation time: 0 hr 18 min 52 sec) 
Heartbeat CPU  0 instructions:   83000000 cycles:  180487766 heartbeat IPC: 0.20190 cumulative IPC: 0.21321 (Simulation time: 0 hr 18 min 53 sec) 
Heartbeat CPU  1 instructions:   89000001 cycles:  181411955 heartbeat IPC: 0.21256 cumulative IPC: 0.22751 (Simulation time: 0 hr 18 min 55 sec) 
Heartbeat CPU  2 instructions:   96000000 cycles:  183623599 heartbeat IPC: 0.17084 cumulative IPC: 0.18940 (Simulation time: 0 hr 19 min 2 sec) 
Heartbeat CPU  3 instructions:   94000003 cycles:  184929243 heartbeat IPC: 0.21492 cumulative IPC: 0.22784 (Simulation time: 0 hr 19 min 6 sec) 
Heartbeat CPU  0 instructions:   84000000 cycles:  185399492 heartbeat IPC: 0.20359 cumulative IPC: 0.21292 (Simulation time: 0 hr 19 min 7 sec) 
Heartbeat CPU  1 instructions:   90000003 cycles:  186035732 heartbeat IPC: 0.21627 cumulative IPC: 0.22718 (Simulation time: 0 hr 19 min 9 sec) 
Heartbeat CPU  2 instructions:   97000003 cycles:  189477466 heartbeat IPC: 0.17083 cumulative IPC: 0.18873 (Simulation time: 0 hr 19 min 20 sec) 
Heartbeat CPU  3 instructions:   95000002 cycles:  189657239 heartbeat IPC: 0.21151 cumulative IPC: 0.22737 (Simulation time: 0 hr 19 min 20 sec) 
Heartbeat CPU  0 instructions:   85000001 cycles:  190300789 heartbeat IPC: 0.20403 cumulative IPC: 0.21265 (Simulation time: 0 hr 19 min 22 sec) 
Heartbeat CPU  1 instructions:   91000001 cycles:  190664599 heartbeat IPC: 0.21604 cumulative IPC: 0.22687 (Simulation time: 0 hr 19 min 23 sec) 
Heartbeat CPU  3 instructions:   96000000 cycles:  194405079 heartbeat IPC: 0.21062 cumulative IPC: 0.22690 (Simulation time: 0 hr 19 min 33 sec) 
Heartbeat CPU  0 instructions:   86000003 cycles:  195060108 heartbeat IPC: 0.21011 cumulative IPC: 0.21258 (Simulation time: 0 hr 19 min 36 sec) 
Heartbeat CPU  2 instructions:   98000003 cycles:  195295444 heartbeat IPC: 0.17188 cumulative IPC: 0.18816 (Simulation time: 0 hr 19 min 36 sec) 
Heartbeat CPU  1 instructions:   92000000 cycles:  195324993 heartbeat IPC: 0.21457 cumulative IPC: 0.22653 (Simulation time: 0 hr 19 min 36 sec) 
Heartbeat CPU  3 instructions:   97000001 cycles:  199037446 heartbeat IPC: 0.21587 cumulative IPC: 0.22660 (Simulation time: 0 hr 19 min 48 sec) 
Heartbeat CPU  0 instructions:   87000001 cycles:  199825223 heartbeat IPC: 0.20986 cumulative IPC: 0.21251 (Simulation time: 0 hr 19 min 51 sec) 
Heartbeat CPU  1 instructions:   93000002 cycles:  199894243 heartbeat IPC: 0.21885 cumulative IPC: 0.22633 (Simulation time: 0 hr 19 min 51 sec) 
Heartbeat CPU  2 instructions:   99000000 cycles:  201035993 heartbeat IPC: 0.17420 cumulative IPC: 0.18770 (Simulation time: 0 hr 19 min 54 sec) 
Heartbeat CPU  3 instructions:   98000002 cycles:  203705527 heartbeat IPC: 0.21422 cumulative IPC: 0.22628 (Simulation time: 0 hr 20 min 3 sec) 
Heartbeat CPU  1 instructions:   94000002 cycles:  204533788 heartbeat IPC: 0.21554 cumulative IPC: 0.22605 (Simulation time: 0 hr 20 min 5 sec) 
Heartbeat CPU  0 instructions:   88000000 cycles:  204743132 heartbeat IPC: 0.20334 cumulative IPC: 0.21225 (Simulation time: 0 hr 20 min 6 sec) 
*** Reached end of trace for Core: 2 Repeating trace: /data3/STREAMING/traces/streaming_phase4_core2.trace.xz
Heartbeat CPU  2 instructions:  100000000 cycles:  206748811 heartbeat IPC: 0.17504 cumulative IPC: 0.18730 (Simulation time: 0 hr 20 min 12 sec) 
Heartbeat CPU  3 instructions:   99000003 cycles:  208252422 heartbeat IPC: 0.21993 cumulative IPC: 0.22612 (Simulation time: 0 hr 20 min 17 sec) 
Heartbeat CPU  1 instructions:   95000000 cycles:  209157875 heartbeat IPC: 0.21626 cumulative IPC: 0.22580 (Simulation time: 0 hr 20 min 20 sec) 
Heartbeat CPU  0 instructions:   89000000 cycles:  209428210 heartbeat IPC: 0.21344 cumulative IPC: 0.21228 (Simulation time: 0 hr 20 min 21 sec) 
Heartbeat CPU  2 instructions:  101000001 cycles:  212323874 heartbeat IPC: 0.17937 cumulative IPC: 0.18706 (Simulation time: 0 hr 20 min 30 sec) 
*** Reached end of trace for Core: 3 Repeating trace: /data3/STREAMING/traces/streaming_phase4_core3.trace.xz
Heartbeat CPU  3 instructions:  100000000 cycles:  212912340 heartbeat IPC: 0.21460 cumulative IPC: 0.22583 (Simulation time: 0 hr 20 min 31 sec) 
Heartbeat CPU  1 instructions:   96000000 cycles:  213850029 heartbeat IPC: 0.21312 cumulative IPC: 0.22549 (Simulation time: 0 hr 20 min 34 sec) 
Heartbeat CPU  0 instructions:   90000003 cycles:  214071866 heartbeat IPC: 0.21535 cumulative IPC: 0.21236 (Simulation time: 0 hr 20 min 35 sec) 
Heartbeat CPU  3 instructions:  101000001 cycles:  217606448 heartbeat IPC: 0.21303 cumulative IPC: 0.22552 (Simulation time: 0 hr 20 min 46 sec) 
Heartbeat CPU  2 instructions:  102000002 cycles:  218220484 heartbeat IPC: 0.16959 cumulative IPC: 0.18653 (Simulation time: 0 hr 20 min 48 sec) 
Heartbeat CPU  1 instructions:   97000003 cycles:  218373297 heartbeat IPC: 0.22108 cumulative IPC: 0.22538 (Simulation time: 0 hr 20 min 49 sec) 
Heartbeat CPU  0 instructions:   91000000 cycles:  218772680 heartbeat IPC: 0.21273 cumulative IPC: 0.21237 (Simulation time: 0 hr 20 min 50 sec) 
Heartbeat CPU  2 instructions:  103000003 cycles:  221971008 heartbeat IPC: 0.26663 cumulative IPC: 0.18806 (Simulation time: 0 hr 21 min 1 sec) 
Heartbeat CPU  3 instructions:  102000000 cycles:  222257426 heartbeat IPC: 0.21501 cumulative IPC: 0.22527 (Simulation time: 0 hr 21 min 2 sec) 
Heartbeat CPU  1 instructions:   98000003 cycles:  222930849 heartbeat IPC: 0.21942 cumulative IPC: 0.22525 (Simulation time: 0 hr 21 min 4 sec) 
Heartbeat CPU  0 instructions:   92000000 cycles:  223480596 heartbeat IPC: 0.21241 cumulative IPC: 0.21237 (Simulation time: 0 hr 21 min 6 sec) 
Heartbeat CPU  2 instructions:  104000000 cycles:  223974640 heartbeat IPC: 0.49909 cumulative IPC: 0.19120 (Simulation time: 0 hr 21 min 8 sec) 
Heartbeat CPU  2 instructions:  105000002 cycles:  226058053 heartbeat IPC: 0.47998 cumulative IPC: 0.19420 (Simulation time: 0 hr 21 min 16 sec) 
Heartbeat CPU  3 instructions:  103000000 cycles:  226946710 heartbeat IPC: 0.21325 cumulative IPC: 0.22499 (Simulation time: 0 hr 21 min 19 sec) 
Heartbeat CPU  1 instructions:   99000000 cycles:  227582621 heartbeat IPC: 0.21497 cumulative IPC: 0.22501 (Simulation time: 0 hr 21 min 22 sec) 
Heartbeat CPU  2 instructions:  106000002 cycles:  228050951 heartbeat IPC: 0.50178 cumulative IPC: 0.19723 (Simulation time: 0 hr 21 min 23 sec) 
Heartbeat CPU  0 instructions:   93000000 cycles:  228169281 heartbeat IPC: 0.21328 cumulative IPC: 0.21239 (Simulation time: 0 hr 21 min 24 sec) 
Heartbeat CPU  2 instructions:  107000003 cycles:  229954768 heartbeat IPC: 0.52526 cumulative IPC: 0.20029 (Simulation time: 0 hr 21 min 30 sec) 
Heartbeat CPU  3 instructions:  104000000 cycles:  231615392 heartbeat IPC: 0.21419 cumulative IPC: 0.22475 (Simulation time: 0 hr 21 min 37 sec) 
Heartbeat CPU  2 instructions:  108000000 cycles:  231895162 heartbeat IPC: 0.51536 cumulative IPC: 0.20326 (Simulation time: 0 hr 21 min 38 sec) 
*** Reached end of trace for Core: 1 Repeating trace: /data3/STREAMING/traces/streaming_phase4_core1.trace.xz
Heartbeat CPU  1 instructions:  100000000 cycles:  232332484 heartbeat IPC: 0.21053 cumulative IPC: 0.22468 (Simulation time: 0 hr 21 min 39 sec) 
Heartbeat CPU  0 instructions:   94000003 cycles:  232865259 heartbeat IPC: 0.21295 cumulative IPC: 0.21240 (Simulation time: 0 hr 21 min 41 sec) 
Heartbeat CPU  2 instructions:  109000001 cycles:  233727484 heartbeat IPC: 0.54576 cumulative IPC: 0.20627 (Simulation time: 0 hr 21 min 43 sec) 
Heartbeat CPU  2 instructions:  110000002 cycles:  235576267 heartbeat IPC: 0.54090 cumulative IPC: 0.20922 (Simulation time: 0 hr 21 min 50 sec) 
Heartbeat CPU  3 instructions:  105000003 cycles:  236354288 heartbeat IPC: 0.21102 cumulative IPC: 0.22444 (Simulation time: 0 hr 21 min 53 sec) 
Heartbeat CPU  1 instructions:  101000003 cycles:  237027439 heartbeat IPC: 0.21300 cumulative IPC: 0.22442 (Simulation time: 0 hr 21 min 55 sec) 
Heartbeat CPU  0 instructions:   95000000 cycles:  237520293 heartbeat IPC: 0.21482 cumulative IPC: 0.21246 (Simulation time: 0 hr 21 min 57 sec) 
Heartbeat CPU  2 instructions:  111000001 cycles:  237560189 heartbeat IPC: 0.50405 cumulative IPC: 0.21198 (Simulation time: 0 hr 21 min 57 sec) 
Heartbeat CPU  2 instructions:  112000000 cycles:  239469833 heartbeat IPC: 0.52366 cumulative IPC: 0.21477 (Simulation time: 0 hr 22 min 4 sec) 
Heartbeat CPU  3 instructions:  106000002 cycles:  241077559 heartbeat IPC: 0.21172 cumulative IPC: 0.22416 (Simulation time: 0 hr 22 min 10 sec) 
Heartbeat CPU  1 instructions:  102000001 cycles:  241686363 heartbeat IPC: 0.21464 cumulative IPC: 0.22421 (Simulation time: 0 hr 22 min 12 sec) 
Heartbeat CPU  0 instructions:   96000000 cycles:  242110625 heartbeat IPC: 0.21785 cumulative IPC: 0.21257 (Simulation time: 0 hr 22 min 13 sec) 
Heartbeat CPU  2 instructions:  113000003 cycles:  242188400 heartbeat IPC: 0.36784 cumulative IPC: 0.21669 (Simulation time: 0 hr 22 min 13 sec) 
Heartbeat CPU  3 instructions:  107000001 cycles:  245718700 heartbeat IPC: 0.21546 cumulative IPC: 0.22398 (Simulation time: 0 hr 22 min 24 sec) 
Heartbeat CPU  1 instructions:  103000000 cycles:  246343960 heartbeat IPC: 0.21470 cumulative IPC: 0.22401 (Simulation time: 0 hr 22 min 26 sec) 
Heartbeat CPU  0 instructions:   97000001 cycles:  246770441 heartbeat IPC: 0.21460 cumulative IPC: 0.21261 (Simulation time: 0 hr 22 min 27 sec) 
Heartbeat CPU  2 instructions:  114000001 cycles:  248247407 heartbeat IPC: 0.16504 cumulative IPC: 0.21528 (Simulation time: 0 hr 22 min 31 sec) 
Heartbeat CPU  3 instructions:  108000000 cycles:  250446250 heartbeat IPC: 0.21153 cumulative IPC: 0.22371 (Simulation time: 0 hr 22 min 37 sec) 
Heartbeat CPU  1 instructions:  104000000 cycles:  250993191 heartbeat IPC: 0.21509 cumulative IPC: 0.22382 (Simulation time: 0 hr 22 min 38 sec) 
Heartbeat CPU  0 instructions:   98000003 cycles:  251380442 heartbeat IPC: 0.21692 cumulative IPC: 0.21270 (Simulation time: 0 hr 22 min 39 sec) 
Heartbeat CPU  2 instructions:  115000001 cycles:  254192274 heartbeat IPC: 0.16821 cumulative IPC: 0.21406 (Simulation time: 0 hr 22 min 48 sec) 
Heartbeat CPU  3 instructions:  109000002 cycles:  255056184 heartbeat IPC: 0.21692 cumulative IPC: 0.22358 (Simulation time: 0 hr 22 min 50 sec) 
Heartbeat CPU  1 instructions:  105000003 cycles:  255689240 heartbeat IPC: 0.21295 cumulative IPC: 0.22360 (Simulation time: 0 hr 22 min 52 sec) 
Heartbeat CPU  0 instructions:   99000003 cycles:  256012531 heartbeat IPC: 0.21589 cumulative IPC: 0.21277 (Simulation time: 0 hr 22 min 53 sec) 
Heartbeat CPU  2 instructions:  116000000 cycles:  258668622 heartbeat IPC: 0.22340 cumulative IPC: 0.21424 (Simulation time: 0 hr 23 min 2 sec) 
Heartbeat CPU  3 instructions:  110000003 cycles:  259726378 heartbeat IPC: 0.21412 cumulative IPC: 0.22339 (Simulation time: 0 hr 23 min 6 sec) 
Heartbeat CPU  1 instructions:  106000002 cycles:  260265864 heartbeat IPC: 0.21850 cumulative IPC: 0.22350 (Simulation time: 0 hr 23 min 8 sec) 
*** Reached end of trace for Core: 0 Repeating trace: /data3/STREAMING/traces/streaming_phase4_core0.trace.xz
Heartbeat CPU  2 instructions:  117000000 cycles:  260521705 heartbeat IPC: 0.53964 cumulative IPC: 0.21681 (Simulation time: 0 hr 23 min 9 sec) 
Heartbeat CPU  0 instructions:  100000000 cycles:  260678623 heartbeat IPC: 0.21431 cumulative IPC: 0.21280 (Simulation time: 0 hr 23 min 10 sec) 
Heartbeat CPU  2 instructions:  118000002 cycles:  262369870 heartbeat IPC: 0.54108 cumulative IPC: 0.21934 (Simulation time: 0 hr 23 min 15 sec) 
Heartbeat CPU  2 instructions:  119000003 cycles:  264222400 heartbeat IPC: 0.53980 cumulative IPC: 0.22183 (Simulation time: 0 hr 23 min 22 sec) 
Heartbeat CPU  3 instructions:  111000002 cycles:  264436683 heartbeat IPC: 0.21230 cumulative IPC: 0.22317 (Simulation time: 0 hr 23 min 23 sec) 
Heartbeat CPU  1 instructions:  107000000 cycles:  265068408 heartbeat IPC: 0.20822 cumulative IPC: 0.22319 (Simulation time: 0 hr 23 min 26 sec) 
Heartbeat CPU  0 instructions:  101000000 cycles:  265385167 heartbeat IPC: 0.21247 cumulative IPC: 0.21279 (Simulation time: 0 hr 23 min 27 sec) 
Heartbeat CPU  2 instructions:  120000000 cycles:  266109491 heartbeat IPC: 0.52991 cumulative IPC: 0.22425 (Simulation time: 0 hr 23 min 30 sec) 
Heartbeat CPU  2 instructions:  121000001 cycles:  267936980 heartbeat IPC: 0.54720 cumulative IPC: 0.22668 (Simulation time: 0 hr 23 min 37 sec) 
Heartbeat CPU  3 instructions:  112000000 cycles:  269099424 heartbeat IPC: 0.21447 cumulative IPC: 0.22300 (Simulation time: 0 hr 23 min 42 sec) 
Heartbeat CPU  1 instructions:  108000000 cycles:  269757605 heartbeat IPC: 0.21326 cumulative IPC: 0.22300 (Simulation time: 0 hr 23 min 44 sec) 
Heartbeat CPU  2 instructions:  122000001 cycles:  269764280 heartbeat IPC: 0.54726 cumulative IPC: 0.22908 (Simulation time: 0 hr 23 min 44 sec) 
Heartbeat CPU  0 instructions:  102000000 cycles:  270079297 heartbeat IPC: 0.21303 cumulative IPC: 0.21279 (Simulation time: 0 hr 23 min 46 sec) 
Heartbeat CPU  2 instructions:  123000001 cycles:  271578962 heartbeat IPC: 0.55106 cumulative IPC: 0.23146 (Simulation time: 0 hr 23 min 52 sec) 
Heartbeat CPU  2 instructions:  124000000 cycles:  273404689 heartbeat IPC: 0.54773 cumulative IPC: 0.23379 (Simulation time: 0 hr 23 min 58 sec) 
Heartbeat CPU  3 instructions:  113000000 cycles:  273832194 heartbeat IPC: 0.21129 cumulative IPC: 0.22278 (Simulation time: 0 hr 24 min 0 sec) 
Heartbeat CPU  1 instructions:  109000000 cycles:  274494740 heartbeat IPC: 0.21110 cumulative IPC: 0.22278 (Simulation time: 0 hr 24 min 2 sec) 
Heartbeat CPU  0 instructions:  103000000 cycles:  274865299 heartbeat IPC: 0.20894 cumulative IPC: 0.21272 (Simulation time: 0 hr 24 min 3 sec) 
Heartbeat CPU  2 instructions:  125000003 cycles:  278531021 heartbeat IPC: 0.19507 cumulative IPC: 0.23301 (Simulation time: 0 hr 24 min 15 sec) 
Heartbeat CPU  3 instructions:  114000000 cycles:  278605632 heartbeat IPC: 0.20949 cumulative IPC: 0.22253 (Simulation time: 0 hr 24 min 15 sec) 
Heartbeat CPU  1 instructions:  110000003 cycles:  279090764 heartbeat IPC: 0.21758 cumulative IPC: 0.22268 (Simulation time: 0 hr 24 min 17 sec) 
Heartbeat CPU  0 instructions:  104000000 cycles:  279463330 heartbeat IPC: 0.21748 cumulative IPC: 0.21281 (Simulation time: 0 hr 24 min 18 sec) 
Heartbeat CPU  3 instructions:  115000000 cycles:  283333315 heartbeat IPC: 0.21152 cumulative IPC: 0.22233 (Simulation time: 0 hr 24 min 30 sec) 
Heartbeat CPU  1 instructions:  111000003 cycles:  283705629 heartbeat IPC: 0.21669 cumulative IPC: 0.22257 (Simulation time: 0 hr 24 min 32 sec) 
Heartbeat CPU  0 instructions:  105000000 cycles:  284126557 heartbeat IPC: 0.21444 cumulative IPC: 0.21284 (Simulation time: 0 hr 24 min 33 sec) 
Heartbeat CPU  2 instructions:  126000000 cycles:  284513680 heartbeat IPC: 0.16715 cumulative IPC: 0.23148 (Simulation time: 0 hr 24 min 34 sec) 
Heartbeat CPU  1 instructions:  112000000 cycles:  288240105 heartbeat IPC: 0.22053 cumulative IPC: 0.22254 (Simulation time: 0 hr 24 min 47 sec) 
Heartbeat CPU  3 instructions:  116000000 cycles:  288246168 heartbeat IPC: 0.20355 cumulative IPC: 0.22198 (Simulation time: 0 hr 24 min 47 sec) 
Heartbeat CPU  0 instructions:  106000003 cycles:  288783076 heartbeat IPC: 0.21475 cumulative IPC: 0.21287 (Simulation time: 0 hr 24 min 48 sec) 
Heartbeat CPU  2 instructions:  127000000 cycles:  289308451 heartbeat IPC: 0.20856 cumulative IPC: 0.23107 (Simulation time: 0 hr 24 min 50 sec) 
Heartbeat CPU  3 instructions:  117000001 cycles:  292780356 heartbeat IPC: 0.22055 cumulative IPC: 0.22195 (Simulation time: 0 hr 25 min 1 sec) 
Heartbeat CPU  1 instructions:  113000000 cycles:  292828132 heartbeat IPC: 0.21796 cumulative IPC: 0.22246 (Simulation time: 0 hr 25 min 1 sec) 
Heartbeat CPU  0 instructions:  107000001 cycles:  293398887 heartbeat IPC: 0.21665 cumulative IPC: 0.21294 (Simulation time: 0 hr 25 min 3 sec) 
Heartbeat CPU  2 instructions:  128000000 cycles:  295078635 heartbeat IPC: 0.17330 cumulative IPC: 0.22983 (Simulation time: 0 hr 25 min 8 sec) 
Heartbeat CPU  3 instructions:  118000000 cycles:  297390415 heartbeat IPC: 0.21692 cumulative IPC: 0.22187 (Simulation time: 0 hr 25 min 16 sec) 
Heartbeat CPU  1 instructions:  114000000 cycles:  297643180 heartbeat IPC: 0.20768 cumulative IPC: 0.22220 (Simulation time: 0 hr 25 min 17 sec) 
Heartbeat CPU  0 instructions:  108000000 cycles:  298028949 heartbeat IPC: 0.21598 cumulative IPC: 0.21299 (Simulation time: 0 hr 25 min 18 sec) 
Heartbeat CPU  2 instructions:  129000001 cycles:  300933595 heartbeat IPC: 0.17080 cumulative IPC: 0.22857 (Simulation time: 0 hr 25 min 28 sec) 
Heartbeat CPU  3 instructions:  119000002 cycles:  302002946 heartbeat IPC: 0.21680 cumulative IPC: 0.22178 (Simulation time: 0 hr 25 min 31 sec) 
Heartbeat CPU  1 instructions:  115000000 cycles:  302421291 heartbeat IPC: 0.20929 cumulative IPC: 0.22198 (Simulation time: 0 hr 25 min 32 sec) 
Heartbeat CPU  0 instructions:  109000003 cycles:  302650169 heartbeat IPC: 0.21639 cumulative IPC: 0.21304 (Simulation time: 0 hr 25 min 33 sec) 
Heartbeat CPU  2 instructions:  130000001 cycles:  305275018 heartbeat IPC: 0.23034 cumulative IPC: 0.22860 (Simulation time: 0 hr 25 min 42 sec) 
Heartbeat CPU  3 instructions:  120000000 cycles:  306778663 heartbeat IPC: 0.20939 cumulative IPC: 0.22157 (Simulation time: 0 hr 25 min 48 sec) 
Heartbeat CPU  2 instructions:  131000001 cycles:  307059337 heartbeat IPC: 0.56044 cumulative IPC: 0.23070 (Simulation time: 0 hr 25 min 49 sec) 
Heartbeat CPU  1 instructions:  116000000 cycles:  307137035 heartbeat IPC: 0.21206 cumulative IPC: 0.22181 (Simulation time: 0 hr 25 min 49 sec) 
Heartbeat CPU  0 instructions:  110000000 cycles:  307239332 heartbeat IPC: 0.21790 cumulative IPC: 0.21312 (Simulation time: 0 hr 25 min 50 sec) 
Heartbeat CPU  2 instructions:  132000000 cycles:  308947069 heartbeat IPC: 0.52974 cumulative IPC: 0.23270 (Simulation time: 0 hr 25 min 56 sec) 
Heartbeat CPU  3 instructions:  121000000 cycles:  311530010 heartbeat IPC: 0.21047 cumulative IPC: 0.22139 (Simulation time: 0 hr 26 min 5 sec) 
Heartbeat CPU  1 instructions:  117000001 cycles:  311880520 heartbeat IPC: 0.21082 cumulative IPC: 0.22163 (Simulation time: 0 hr 26 min 6 sec) 
Heartbeat CPU  0 instructions:  111000001 cycles:  311991805 heartbeat IPC: 0.21042 cumulative IPC: 0.21308 (Simulation time: 0 hr 26 min 7 sec) 
Heartbeat CPU  2 instructions:  133000003 cycles:  312312143 heartbeat IPC: 0.29717 cumulative IPC: 0.23345 (Simulation time: 0 hr 26 min 8 sec) 
Heartbeat CPU  3 instructions:  122000000 cycles:  316264746 heartbeat IPC: 0.21121 cumulative IPC: 0.22122 (Simulation time: 0 hr 26 min 20 sec) 
Heartbeat CPU  1 instructions:  118000000 cycles:  316593977 heartbeat IPC: 0.21216 cumulative IPC: 0.22147 (Simulation time: 0 hr 26 min 21 sec) 
Heartbeat CPU  0 instructions:  112000000 cycles:  316716070 heartbeat IPC: 0.21167 cumulative IPC: 0.21306 (Simulation time: 0 hr 26 min 22 sec) 
Heartbeat CPU  2 instructions:  134000002 cycles:  318341982 heartbeat IPC: 0.16584 cumulative IPC: 0.23206 (Simulation time: 0 hr 26 min 27 sec) 
Heartbeat CPU  3 instructions:  123000001 cycles:  320964311 heartbeat IPC: 0.21279 cumulative IPC: 0.22109 (Simulation time: 0 hr 26 min 35 sec) 
Heartbeat CPU  1 instructions:  119000001 cycles:  321269560 heartbeat IPC: 0.21388 cumulative IPC: 0.22135 (Simulation time: 0 hr 26 min 36 sec) 
Heartbeat CPU  0 instructions:  113000001 cycles:  321464237 heartbeat IPC: 0.21061 cumulative IPC: 0.21302 (Simulation time: 0 hr 26 min 37 sec) 
Heartbeat CPU  2 instructions:  135000001 cycles:  324332559 heartbeat IPC: 0.16693 cumulative IPC: 0.23075 (Simulation time: 0 hr 26 min 45 sec) 
Heartbeat CPU  3 instructions:  124000000 cycles:  325428573 heartbeat IPC: 0.22400 cumulative IPC: 0.22113 (Simulation time: 0 hr 26 min 49 sec) 
Heartbeat CPU  1 instructions:  120000000 cycles:  325957355 heartbeat IPC: 0.21332 cumulative IPC: 0.22123 (Simulation time: 0 hr 26 min 51 sec) 
Heartbeat CPU  0 instructions:  114000001 cycles:  326193511 heartbeat IPC: 0.21145 cumulative IPC: 0.21299 (Simulation time: 0 hr 26 min 51 sec) 
Heartbeat CPU  2 instructions:  136000000 cycles:  329146617 heartbeat IPC: 0.20772 cumulative IPC: 0.23039 (Simulation time: 0 hr 27 min 1 sec) 
Heartbeat CPU  3 instructions:  125000002 cycles:  330301877 heartbeat IPC: 0.20520 cumulative IPC: 0.22087 (Simulation time: 0 hr 27 min 6 sec) 
Heartbeat CPU  1 instructions:  121000000 cycles:  330540937 heartbeat IPC: 0.21817 cumulative IPC: 0.22118 (Simulation time: 0 hr 27 min 7 sec) 
Heartbeat CPU  2 instructions:  137000001 cycles:  330628616 heartbeat IPC: 0.67476 cumulative IPC: 0.23255 (Simulation time: 0 hr 27 min 8 sec) 
Heartbeat CPU  0 instructions:  115000002 cycles:  330895095 heartbeat IPC: 0.21269 cumulative IPC: 0.21299 (Simulation time: 0 hr 27 min 9 sec) 
Heartbeat CPU  2 instructions:  138000003 cycles:  331750301 heartbeat IPC: 0.89152 cumulative IPC: 0.23496 (Simulation time: 0 hr 27 min 13 sec) 
Heartbeat CPU  2 instructions:  139000002 cycles:  332855147 heartbeat IPC: 0.90510 cumulative IPC: 0.23738 (Simulation time: 0 hr 27 min 18 sec) 
Heartbeat CPU  3 instructions:  126000003 cycles:  334882162 heartbeat IPC: 0.21833 cumulative IPC: 0.22084 (Simulation time: 0 hr 27 min 24 sec) 
Heartbeat CPU  1 instructions:  122000001 cycles:  335164916 heartbeat IPC: 0.21626 cumulative IPC: 0.22111 (Simulation time: 0 hr 27 min 25 sec) 
Heartbeat CPU  0 instructions:  116000000 cycles:  335618244 heartbeat IPC: 0.21172 cumulative IPC: 0.21297 (Simulation time: 0 hr 27 min 27 sec) 
Heartbeat CPU  2 instructions:  140000000 cycles:  336601904 heartbeat IPC: 0.26690 cumulative IPC: 0.23773 (Simulation time: 0 hr 27 min 30 sec) 
Heartbeat CPU  2 instructions:  141000002 cycles:  338559040 heartbeat IPC: 0.51095 cumulative IPC: 0.23944 (Simulation time: 0 hr 27 min 38 sec) 
Heartbeat CPU  3 instructions:  127000002 cycles:  339439753 heartbeat IPC: 0.21941 cumulative IPC: 0.22082 (Simulation time: 0 hr 27 min 42 sec) 
Heartbeat CPU  1 instructions:  123000002 cycles:  339772853 heartbeat IPC: 0.21702 cumulative IPC: 0.22105 (Simulation time: 0 hr 27 min 43 sec) 
Heartbeat CPU  0 instructions:  117000003 cycles:  340286723 heartbeat IPC: 0.21420 cumulative IPC: 0.21299 (Simulation time: 0 hr 27 min 44 sec) 
Heartbeat CPU  2 instructions:  142000002 cycles:  341680008 heartbeat IPC: 0.32041 cumulative IPC: 0.24024 (Simulation time: 0 hr 27 min 49 sec) 
Heartbeat CPU  2 instructions:  143000002 cycles:  342795111 heartbeat IPC: 0.89678 cumulative IPC: 0.24255 (Simulation time: 0 hr 27 min 54 sec) 
Heartbeat CPU  2 instructions:  144000000 cycles:  343884550 heartbeat IPC: 0.91790 cumulative IPC: 0.24486 (Simulation time: 0 hr 27 min 59 sec) 
Heartbeat CPU  3 instructions:  128000000 cycles:  344028705 heartbeat IPC: 0.21791 cumulative IPC: 0.22077 (Simulation time: 0 hr 28 min 0 sec) 
Heartbeat CPU  1 instructions:  124000000 cycles:  344382631 heartbeat IPC: 0.21693 cumulative IPC: 0.22099 (Simulation time: 0 hr 28 min 1 sec) 
Heartbeat CPU  0 instructions:  118000001 cycles:  344816960 heartbeat IPC: 0.22074 cumulative IPC: 0.21310 (Simulation time: 0 hr 28 min 3 sec) 
Heartbeat CPU  2 instructions:  145000002 cycles:  344996847 heartbeat IPC: 0.89904 cumulative IPC: 0.24714 (Simulation time: 0 hr 28 min 4 sec) 
Heartbeat CPU  2 instructions:  146000003 cycles:  346166839 heartbeat IPC: 0.85471 cumulative IPC: 0.24936 (Simulation time: 0 hr 28 min 10 sec) 
Heartbeat CPU  2 instructions:  147000000 cycles:  347646921 heartbeat IPC: 0.67564 cumulative IPC: 0.25132 (Simulation time: 0 hr 28 min 16 sec) 
Heartbeat CPU  3 instructions:  129000003 cycles:  348663273 heartbeat IPC: 0.21577 cumulative IPC: 0.22070 (Simulation time: 0 hr 28 min 20 sec) 
Heartbeat CPU  2 instructions:  148000000 cycles:  349042903 heartbeat IPC: 0.71634 cumulative IPC: 0.25333 (Simulation time: 0 hr 28 min 22 sec) 
Heartbeat CPU  1 instructions:  125000003 cycles:  349222958 heartbeat IPC: 0.20660 cumulative IPC: 0.22077 (Simulation time: 0 hr 28 min 23 sec) 
[...]
Core_1_L1D_acc_level_1 0
Core_1_L1D_acc_level_2 0
Core_1_L1D_acc_level_3 0
Core_1_L1D_acc_level_4 0
Core_1_L1D_acc_level_5 0
Core_1_L1D_acc_level_6 0
Core_1_L1D_acc_level_7 0
Core_1_L1D_acc_level_8 0
Core_1_L1D_acc_level_9 0

Core_1_L1I_total_access 32223105
Core_1_L1I_total_hit 26426962
Core_1_L1I_total_miss 5796143
Core_1_L1I_loads 32223105
Core_1_L1I_load_hit 26426962
Core_1_L1I_load_miss 5796143
Core_1_L1I_RFOs 0
Core_1_L1I_RFO_hit 0
Core_1_L1I_RFO_miss 0
Core_1_L1I_prefetches 0
Core_1_L1I_prefetch_hit 0
Core_1_L1I_prefetch_miss 0
Core_1_L1I_writebacks 0
Core_1_L1I_writeback_hit 0
Core_1_L1I_writeback_miss 0
Core_1_L1I_prefetch_requested 0
Core_1_L1I_prefetch_dropped 0
Core_1_L1I_prefetch_issued 0
Core_1_L1I_prefetch_filled 0
Core_1_L1I_prefetch_useful 0
Core_1_L1I_prefetch_useless 0
Core_1_L1I_prefetch_late 0
Core_1_L1I_average_miss_latency 106.71083

Core_1_L1I_rq_access 160287366
Core_1_L1I_rq_forward 0
Core_1_L1I_rq_merged 122069932
Core_1_L1I_rq_to_cache 38217434
Core_1_L1I_rq_full 0

Core_1_L1I_wq_access 0
Core_1_L1I_wq_forward 0
Core_1_L1I_wq_merged 0
Core_1_L1I_wq_to_cache 0
Core_1_L1I_wq_full 0

Core_1_L1I_pq_access 0
Core_1_L1I_pq_forward 0
Core_1_L1I_pq_merged 0
Core_1_L1I_pq_to_cache 0
Core_1_L1I_pq_full 0

Core_1_L1I_acc_epochs 182404
Core_1_L1I_acc_level_0 182404
Core_1_L1I_acc_level_1 0
Core_1_L1I_acc_level_2 0
Core_1_L1I_acc_level_3 0
Core_1_L1I_acc_level_4 0
Core_1_L1I_acc_level_5 0
Core_1_L1I_acc_level_6 0
Core_1_L1I_acc_level_7 0
Core_1_L1I_acc_level_8 0
Core_1_L1I_acc_level_9 0

Core_1_L2C_total_access 28833899
Core_1_L2C_total_hit 21342677
Core_1_L2C_total_miss 7491222
Core_1_L2C_loads 7942267
Core_1_L2C_load_hit 6367232
Core_1_L2C_load_miss 1575035
Core_1_L2C_RFOs 807016
Core_1_L2C_RFO_hit 391232
Core_1_L2C_RFO_miss 415784
Core_1_L2C_prefetches 18970280
Core_1_L2C_prefetch_hit 13656432
Core_1_L2C_prefetch_miss 5313848
Core_1_L2C_writebacks 1114336
Core_1_L2C_writeback_hit 927781
Core_1_L2C_writeback_miss 186555
Core_1_L2C_prefetch_requested 31954392
Core_1_L2C_prefetch_dropped 4104750
Core_1_L2C_prefetch_issued 27849642
Core_1_L2C_prefetch_filled 8151136
Core_1_L2C_prefetch_useful 1024067
Core_1_L2C_prefetch_useless 7124747
Core_1_L2C_prefetch_late 82952
Core_1_L2C_average_miss_latency 129.32767

Core_1_L2C_rq_access 9365093
Core_1_L2C_rq_forward 0
Core_1_L2C_rq_merged 0
Core_1_L2C_rq_to_cache 9364354
Core_1_L2C_rq_full 0

Core_1_L2C_wq_access 1184867
Core_1_L2C_wq_forward 753
Core_1_L2C_wq_merged 0
Core_1_L2C_wq_to_cache 1184867
Core_1_L2C_wq_full 0

Core_1_L2C_pq_access 27849642
Core_1_L2C_pq_forward 0
Core_1_L2C_pq_merged 0
Core_1_L2C_pq_to_cache 27849628
Core_1_L2C_pq_full 0

Core_1_L2C_acc_epochs 182404
Core_1_L2C_acc_level_0 70696
Core_1_L2C_acc_level_1 47502
Core_1_L2C_acc_level_2 20462
Core_1_L2C_acc_level_3 11439
Core_1_L2C_acc_level_4 6582
Core_1_L2C_acc_level_5 5270
Core_1_L2C_acc_level_6 3413
Core_1_L2C_acc_level_7 2586
Core_1_L2C_acc_level_8 2165
Core_1_L2C_acc_level_9 12289

Core_1_LLC_total_access 7978485
Core_1_LLC_total_hit 6700282
Core_1_LLC_total_miss 1278203
Core_1_LLC_loads 1498874
Core_1_LLC_load_hit 1298437
Core_1_LLC_load_miss 200437
Core_1_LLC_RFOs 413131
Core_1_LLC_RFO_hit 236338
Core_1_LLC_RFO_miss 176793
Core_1_LLC_prefetches 5392393
Core_1_LLC_prefetch_hit 4509668
Core_1_LLC_prefetch_miss 882725
Core_1_LLC_writebacks 674087
Core_1_LLC_writeback_hit 655839
Core_1_LLC_writeback_miss 18248
Core_1_LLC_prefetch_requested 0
Core_1_LLC_prefetch_dropped 0
Core_1_LLC_prefetch_issued 0
Core_1_LLC_prefetch_filled 5509202
Core_1_LLC_prefetch_useful 192304
Core_1_LLC_prefetch_useless 5231755
Core_1_LLC_prefetch_late 0
Core_1_LLC_average_miss_latency 755.11103

Core_1_LLC_rq_access 8653814
Core_1_LLC_rq_forward 0
Core_1_LLC_rq_merged 0
Core_1_LLC_rq_to_cache 8652900
Core_1_LLC_rq_full 0

Core_1_LLC_wq_access 2972408
Core_1_LLC_wq_forward 1142
Core_1_LLC_wq_merged 0
Core_1_LLC_wq_to_cache 2972408
Core_1_LLC_wq_full 0

Core_1_LLC_pq_access 35340159
Core_1_LLC_pq_forward 0
Core_1_LLC_pq_merged 0
Core_1_LLC_pq_to_cache 35339929
Core_1_LLC_pq_full 0

Core_1_LLC_acc_epochs 712463
Core_1_LLC_acc_level_0 660597
Core_1_LLC_acc_level_1 26216
Core_1_LLC_acc_level_2 11170
Core_1_LLC_acc_level_3 3544
Core_1_LLC_acc_level_4 1011
Core_1_LLC_acc_level_5 5156
Core_1_LLC_acc_level_6 737
Core_1_LLC_acc_level_7 820
Core_1_LLC_acc_level_8 323
Core_1_LLC_acc_level_9 2889

Core_1_major_page_fault 0
Core_1_minor_page_fault 16796

Core_2_instructions 150000001
Core_2_cycles 601561927
Core_2_IPC 0.24935

Core_2_branch_prediction_accuracy 97.28196
Core_2_branch_MPKI 4.12271
Core_2_average_ROB_occupancy_at_mispredict 84.63312

Core_2_L1D_total_access 19223203
Core_2_L1D_total_hit 16766731
Core_2_L1D_total_miss 2456472
Core_2_L1D_loads 12535680
Core_2_L1D_load_hit 10629931
Core_2_L1D_load_miss 1905749
Core_2_L1D_RFOs 6687523
Core_2_L1D_RFO_hit 6136800
Core_2_L1D_RFO_miss 550723
Core_2_L1D_prefetches 0
Core_2_L1D_prefetch_hit 0
Core_2_L1D_prefetch_miss 0
Core_2_L1D_writebacks 0
Core_2_L1D_writeback_hit 0
Core_2_L1D_writeback_miss 0
Core_2_L1D_prefetch_requested 0
Core_2_L1D_prefetch_dropped 0
Core_2_L1D_prefetch_issued 0
Core_2_L1D_prefetch_filled 0
Core_2_L1D_prefetch_useful 0
Core_2_L1D_prefetch_useless 0
Core_2_L1D_prefetch_late 0
Core_2_L1D_average_miss_latency 116.33714

Core_2_L1D_rq_access 30303992
Core_2_L1D_rq_forward 0
Core_2_L1D_rq_merged 13691535
Core_2_L1D_rq_to_cache 16607785
Core_2_L1D_rq_full 0

Core_2_L1D_wq_access 9750705
Core_2_L1D_wq_forward 4672
Core_2_L1D_wq_merged 31185
Core_2_L1D_wq_to_cache 9719520
Core_2_L1D_wq_full 0

Core_2_L1D_pq_access 0
Core_2_L1D_pq_forward 0
Core_2_L1D_pq_merged 0
Core_2_L1D_pq_to_cache 0
Core_2_L1D_pq_full 0

Core_2_L1D_acc_epochs 193041
Core_2_L1D_acc_level_0 193041
Core_2_L1D_acc_level_1 0
Core_2_L1D_acc_level_2 0
Core_2_L1D_acc_level_3 0
Core_2_L1D_acc_level_4 0
Core_2_L1D_acc_level_5 0
Core_2_L1D_acc_level_6 0
Core_2_L1D_acc_level_7 0
Core_2_L1D_acc_level_8 0
Core_2_L1D_acc_level_9 0

Core_2_L1I_total_access 28893767
Core_2_L1I_total_hit 25411438
Core_2_L1I_total_miss 3482329
Core_2_L1I_loads 28893767
Core_2_L1I_load_hit 25411438
Core_2_L1I_load_miss 3482329
Core_2_L1I_RFOs 0
Core_2_L1I_RFO_hit 0
Core_2_L1I_RFO_miss 0
Core_2_L1I_prefetches 0
Core_2_L1I_prefetch_hit 0
Core_2_L1I_prefetch_miss 0
Core_2_L1I_writebacks 0
Core_2_L1I_writeback_hit 0
Core_2_L1I_writeback_miss 0
Core_2_L1I_prefetch_requested 0
Core_2_L1I_prefetch_dropped 0
Core_2_L1I_prefetch_issued 0
Core_2_L1I_prefetch_filled 0
Core_2_L1I_prefetch_useful 0
Core_2_L1I_prefetch_useless 0
Core_2_L1I_prefetch_late 0
Core_2_L1I_average_miss_latency 137.79591

Core_2_L1I_rq_access 189393093
Core_2_L1I_rq_forward 0
Core_2_L1I_rq_merged 151095320
Core_2_L1I_rq_to_cache 38297773
Core_2_L1I_rq_full 0

Core_2_L1I_wq_access 0
Core_2_L1I_wq_forward 0
Core_2_L1I_wq_merged 0
Core_2_L1I_wq_to_cache 0
Core_2_L1I_wq_full 0

Core_2_L1I_pq_access 0
Core_2_L1I_pq_forward 0
Core_2_L1I_pq_merged 0
Core_2_L1I_pq_to_cache 0
Core_2_L1I_pq_full 0

Core_2_L1I_acc_epochs 193041
Core_2_L1I_acc_level_0 193041
Core_2_L1I_acc_level_1 0
Core_2_L1I_acc_level_2 0
Core_2_L1I_acc_level_3 0
Core_2_L1I_acc_level_4 0
Core_2_L1I_acc_level_5 0
Core_2_L1I_acc_level_6 0
Core_2_L1I_acc_level_7 0
Core_2_L1I_acc_level_8 0
Core_2_L1I_acc_level_9 0

Core_2_L2C_total_access 19678652
Core_2_L2C_total_hit 10075607
Core_2_L2C_total_miss 9603045
Core_2_L2C_loads 5387811
Core_2_L2C_load_hit 3356645
Core_2_L2C_load_miss 2031166
Core_2_L2C_RFOs 550456
Core_2_L2C_RFO_hit 222505
Core_2_L2C_RFO_miss 327951
Core_2_L2C_prefetches 12807150
Core_2_L2C_prefetch_hit 5799972
Core_2_L2C_prefetch_miss 7007178
Core_2_L2C_writebacks 933235
Core_2_L2C_writeback_hit 696485
Core_2_L2C_writeback_miss 236750
Core_2_L2C_prefetch_requested 20389460
Core_2_L2C_prefetch_dropped 1758120
Core_2_L2C_prefetch_issued 18631340
Core_2_L2C_prefetch_filled 10610029
Core_2_L2C_prefetch_useful 1920807
Core_2_L2C_prefetch_useless 8687638
Core_2_L2C_prefetch_late 70090
Core_2_L2C_average_miss_latency 140.65950

Core_2_L2C_rq_access 6776177
Core_2_L2C_rq_forward 0
Core_2_L2C_rq_merged 0
Core_2_L2C_rq_to_cache 6775600
Core_2_L2C_rq_full 0

Core_2_L2C_wq_access 1057499
Core_2_L2C_wq_forward 610
Core_2_L2C_wq_merged 0
Core_2_L2C_wq_to_cache 1057499
Core_2_L2C_wq_full 0

Core_2_L2C_pq_access 18631340
Core_2_L2C_pq_forward 0
Core_2_L2C_pq_merged 0
Core_2_L2C_pq_to_cache 18631307
Core_2_L2C_pq_full 0

Core_2_L2C_acc_epochs 193041
Core_2_L2C_acc_level_0 58221
Core_2_L2C_acc_level_1 49152
Core_2_L2C_acc_level_2 18118
Core_2_L2C_acc_level_3 9685
Core_2_L2C_acc_level_4 6831
Core_2_L2C_acc_level_5 6300
Core_2_L2C_acc_level_6 5867
Core_2_L2C_acc_level_7 5455
Core_2_L2C_acc_level_8 4882
Core_2_L2C_acc_level_9 28530

Core_2_LLC_total_access 10058701
Core_2_LLC_total_hit 8907318
Core_2_LLC_total_miss 1151383
Core_2_LLC_loads 1970762
Core_2_LLC_load_hit 1833113
Core_2_LLC_load_miss 137649
Core_2_LLC_RFOs 327354
Core_2_LLC_RFO_hit 238936
Core_2_LLC_RFO_miss 88418
Core_2_LLC_prefetches 7067906
Core_2_LLC_prefetch_hit 6151350
Core_2_LLC_prefetch_miss 916556
Core_2_LLC_writebacks 692679
Core_2_LLC_writeback_hit 683919
Core_2_LLC_writeback_miss 8760
Core_2_LLC_prefetch_requested 0
Core_2_LLC_prefetch_dropped 0
Core_2_LLC_prefetch_issued 0
Core_2_LLC_prefetch_filled 5509202
Core_2_LLC_prefetch_useful 192304
Core_2_LLC_prefetch_useless 5231755
Core_2_LLC_prefetch_late 0
Core_2_LLC_average_miss_latency 838.28333

Core_2_LLC_rq_access 8653814
Core_2_LLC_rq_forward 0
Core_2_LLC_rq_merged 0
Core_2_LLC_rq_to_cache 8652900
Core_2_LLC_rq_full 0

Core_2_LLC_wq_access 2972408
Core_2_LLC_wq_forward 1142
Core_2_LLC_wq_merged 0
Core_2_LLC_wq_to_cache 2972408
Core_2_LLC_wq_full 0

Core_2_LLC_pq_access 35340159
Core_2_LLC_pq_forward 0
Core_2_LLC_pq_merged 0
Core_2_LLC_pq_to_cache 35339929
Core_2_LLC_pq_full 0

Core_2_LLC_acc_epochs 712463
Core_2_LLC_acc_level_0 660597
Core_2_LLC_acc_level_1 26216
Core_2_LLC_acc_level_2 11170
Core_2_LLC_acc_level_3 3544
Core_2_LLC_acc_level_4 1011
Core_2_LLC_acc_level_5 5156
Core_2_LLC_acc_level_6 737
Core_2_LLC_acc_level_7 820
Core_2_LLC_acc_level_8 323
Core_2_LLC_acc_level_9 2889

Core_2_major_page_fault 0
Core_2_minor_page_fault 15403

Core_3_instructions 150000003
Core_3_cycles 619876885
Core_3_IPC 0.24198

Core_3_branch_prediction_accuracy 97.36047
Core_3_branch_MPKI 4.52930
Core_3_average_ROB_occupancy_at_mispredict 82.78468

Core_3_L1D_total_access 22118284
Core_3_L1D_total_hit 19249572
Core_3_L1D_total_miss 2868712
Core_3_L1D_loads 13136572
Core_3_L1D_load_hit 11027928
Core_3_L1D_load_miss 2108644
Core_3_L1D_RFOs 8981712
Core_3_L1D_RFO_hit 8221644
Core_3_L1D_RFO_miss 760068
Core_3_L1D_prefetches 0
Core_3_L1D_prefetch_hit 0
Core_3_L1D_prefetch_miss 0
Core_3_L1D_writebacks 0
Core_3_L1D_writeback_hit 0
Core_3_L1D_writeback_miss 0
Core_3_L1D_prefetch_requested 0
Core_3_L1D_prefetch_dropped 0
Core_3_L1D_prefetch_issued 0
Core_3_L1D_prefetch_filled 0
Core_3_L1D_prefetch_useful 0
Core_3_L1D_prefetch_useless 0
Core_3_L1D_prefetch_late 0
Core_3_L1D_average_miss_latency 109.50658

Core_3_L1D_rq_access 28968968
Core_3_L1D_rq_forward 0
Core_3_L1D_rq_merged 13390906
Core_3_L1D_rq_to_cache 15574952
Core_3_L1D_rq_full 0

Core_3_L1D_wq_access 13304247
Core_3_L1D_wq_forward 3110
Core_3_L1D_wq_merged 39100
Core_3_L1D_wq_to_cache 13265147
Core_3_L1D_wq_full 0

Core_3_L1D_pq_access 0
Core_3_L1D_pq_forward 0
Core_3_L1D_pq_merged 0
Core_3_L1D_pq_to_cache 0
Core_3_L1D_pq_full 0

Core_3_L1D_acc_epochs 188309
Core_3_L1D_acc_level_0 188309
Core_3_L1D_acc_level_1 0
Core_3_L1D_acc_level_2 0
Core_3_L1D_acc_level_3 0
Core_3_L1D_acc_level_4 0
Core_3_L1D_acc_level_5 0
Core_3_L1D_acc_level_6 0
Core_3_L1D_acc_level_7 0
Core_3_L1D_acc_level_8 0
Core_3_L1D_acc_level_9 0

Core_3_L1I_total_access 31677194
Core_3_L1I_total_hit 26245840
Core_3_L1I_total_miss 5431354
Core_3_L1I_loads 31677194
Core_3_L1I_load_hit 26245840
Core_3_L1I_load_miss 5431354
Core_3_L1I_RFOs 0
Core_3_L1I_RFO_hit 0
Core_3_L1I_RFO_miss 0
Core_3_L1I_prefetches 0
Core_3_L1I_prefetch_hit 0
Core_3_L1I_prefetch_miss 0
Core_3_L1I_writebacks 0
Core_3_L1I_writeback_hit 0
Core_3_L1I_writeback_miss 0
Core_3_L1I_prefetch_requested 0
Core_3_L1I_prefetch_dropped 0
Core_3_L1I_prefetch_issued 0
Core_3_L1I_prefetch_filled 0
Core_3_L1I_prefetch_useful 0
Core_3_L1I_prefetch_useless 0
Core_3_L1I_prefetch_late 0
Core_3_L1I_average_miss_latency 110.42671

Core_3_L1I_rq_access 167836251
Core_3_L1I_rq_forward 0
Core_3_L1I_rq_merged 128596417
Core_3_L1I_rq_to_cache 39239834
Core_3_L1I_rq_full 0

Core_3_L1I_wq_access 0
Core_3_L1I_wq_forward 0
Core_3_L1I_wq_merged 0
Core_3_L1I_wq_to_cache 0
Core_3_L1I_wq_full 0

Core_3_L1I_pq_access 0
Core_3_L1I_pq_forward 0
Core_3_L1I_pq_merged 0
Core_3_L1I_pq_to_cache 0
Core_3_L1I_pq_full 0

Core_3_L1I_acc_epochs 188309
Core_3_L1I_acc_level_0 188309
Core_3_L1I_acc_level_1 0
Core_3_L1I_acc_level_2 0
Core_3_L1I_acc_level_3 0
Core_3_L1I_acc_level_4 0
Core_3_L1I_acc_level_5 0
Core_3_L1I_acc_level_6 0
Core_3_L1I_acc_level_7 0
Core_3_L1I_acc_level_8 0
Core_3_L1I_acc_level_9 0

Core_3_L2C_total_access 27200564
Core_3_L2C_total_hit 20315645
Core_3_L2C_total_miss 6884919
Core_3_L2C_loads 7539794
Core_3_L2C_load_hit 6106549
Core_3_L2C_load_miss 1433245
Core_3_L2C_RFOs 759606
Core_3_L2C_RFO_hit 357047
Core_3_L2C_RFO_miss 402559
Core_3_L2C_prefetches 17844748
Core_3_L2C_prefetch_hit 12974012
Core_3_L2C_prefetch_miss 4870736
Core_3_L2C_writebacks 1056416
Core_3_L2C_writeback_hit 878037
Core_3_L2C_writeback_miss 178379
Core_3_L2C_prefetch_requested 30675069
Core_3_L2C_prefetch_dropped 3702099
Core_3_L2C_prefetch_issued 26972970
Core_3_L2C_prefetch_filled 7539021
Core_3_L2C_prefetch_useful 1089151
Core_3_L2C_prefetch_useless 6447291
Core_3_L2C_prefetch_late 72917
Core_3_L2C_average_miss_latency 134.23208

Core_3_L2C_rq_access 9411187
Core_3_L2C_rq_forward 0
Core_3_L2C_rq_merged 0
Core_3_L2C_rq_to_cache 9410439
Core_3_L2C_rq_full 0

Core_3_L2C_wq_access 1190075
Core_3_L2C_wq_forward 770
Core_3_L2C_wq_merged 0
Core_3_L2C_wq_to_cache 1190075
Core_3_L2C_wq_full 0

Core_3_L2C_pq_access 26972970
Core_3_L2C_pq_forward 0
Core_3_L2C_pq_merged 0
Core_3_L2C_pq_to_cache 26972948
Core_3_L2C_pq_full 0

Core_3_L2C_acc_epochs 188309
Core_3_L2C_acc_level_0 63964
Core_3_L2C_acc_level_1 48871
Core_3_L2C_acc_level_2 22629
Core_3_L2C_acc_level_3 12923
Core_3_L2C_acc_level_4 7502
Core_3_L2C_acc_level_5 5719
Core_3_L2C_acc_level_6 3701
Core_3_L2C_acc_level_7 2824
Core_3_L2C_acc_level_8 2447
Core_3_L2C_acc_level_9 17729

Core_3_LLC_total_access 7357166
Core_3_LLC_total_hit 6030653
Core_3_LLC_total_miss 1326513
Core_3_LLC_loads 1369964
Core_3_LLC_load_hit 1162576
Core_3_LLC_load_miss 207388
Core_3_LLC_RFOs 400341
Core_3_LLC_RFO_hit 231920
Core_3_LLC_RFO_miss 168421
Core_3_LLC_prefetches 4935981
Core_3_LLC_prefetch_hit 4001891
Core_3_LLC_prefetch_miss 934090
Core_3_LLC_writebacks 650880
Core_3_LLC_writeback_hit 634266
Core_3_LLC_writeback_miss 16614
Core_3_LLC_prefetch_requested 0
Core_3_LLC_prefetch_dropped 0
Core_3_LLC_prefetch_issued 0
Core_3_LLC_prefetch_filled 5509202
Core_3_LLC_prefetch_useful 192304
Core_3_LLC_prefetch_useless 5231755
Core_3_LLC_prefetch_late 0
Core_3_LLC_average_miss_latency 727.61079

Core_3_LLC_rq_access 8653814
Core_3_LLC_rq_forward 0
Core_3_LLC_rq_merged 0
Core_3_LLC_rq_to_cache 8652900
Core_3_LLC_rq_full 0

Core_3_LLC_wq_access 2972408
Core_3_LLC_wq_forward 1142
Core_3_LLC_wq_merged 0
Core_3_LLC_wq_to_cache 2972408
Core_3_LLC_wq_full 0

Core_3_LLC_pq_access 35340159
Core_3_LLC_pq_forward 0
Core_3_LLC_pq_merged 0
Core_3_LLC_pq_to_cache 35339929
Core_3_LLC_pq_full 0

Core_3_LLC_acc_epochs 712463
Core_3_LLC_acc_level_0 660597
Core_3_LLC_acc_level_1 26216
Core_3_LLC_acc_level_2 11170
Core_3_LLC_acc_level_3 3544
Core_3_LLC_acc_level_4 1011
Core_3_LLC_acc_level_5 5156
Core_3_LLC_acc_level_6 737
Core_3_LLC_acc_level_7 820
Core_3_LLC_acc_level_8 323
Core_3_LLC_acc_level_9 2889

Core_3_major_page_fault 0
Core_3_minor_page_fault 16956

dspatch.pb.lookup 11395234
dspatch.pb.hit 7869860
dspatch.pb.evict 3525310
dspatch.pb.insert 3525374

dspatch.gen_pref.called 3525374
dspatch.gen_pref.reset 19503
dspatch.gen_pref.total 33023923

dspatch.dyn_selection.called 3525374
dspatch.dyn_selection.none 95
dspatch.dyn_selection.accp_reason1 19503
dspatch.dyn_selection.accp_reason2 70606
dspatch.dyn_selection.covp_reason1 0
dspatch.dyn_selection.covp_reason2 3435170

dspatch.spt.called 3525310
dspatch.spt.or_count_incr 580227
dspatch.spt.measure_covP_incr 2248886
dspatch.spt.bmp_cov_reset 84546
dspatch.spt.bmp_cov_update 12408
dspatch.spt.measure_accP_incr 672106
dspatch.spt.measure_accP_decr 2853204
dspatch.spt.bmp_acc_update 3525310

dspatch.pref_buffer.spilled 372719
dspatch.pref_buffer.buffered 32651204
dspatch.pref_buffer.issued 32651178

dspatch.bw.called 2849851
dspatch.bw.bw_histogram 2464449,273615,85141,26646,

dspatch.pb.lookup 11256050
dspatch.pb.hit 7829900
dspatch.pb.evict 3426086
dspatch.pb.insert 3426150

dspatch.gen_pref.called 3426150
dspatch.gen_pref.reset 17992
dspatch.gen_pref.total 32408132

dspatch.dyn_selection.called 3426150
dspatch.dyn_selection.none 91
dspatch.dyn_selection.accp_reason1 17992
dspatch.dyn_selection.accp_reason2 66022
dspatch.dyn_selection.covp_reason1 0
dspatch.dyn_selection.covp_reason2 3342045

dspatch.spt.called 3426086
dspatch.spt.or_count_incr 552328
dspatch.spt.measure_covP_incr 2166545
dspatch.spt.bmp_cov_reset 77373
dspatch.spt.bmp_cov_update 19110
dspatch.spt.measure_accP_incr 652478
dspatch.spt.measure_accP_decr 2773608
dspatch.spt.bmp_acc_update 3426086

dspatch.pref_buffer.spilled 453740
dspatch.pref_buffer.buffered 31954392
dspatch.pref_buffer.issued 31954392

dspatch.bw.called 2849851
dspatch.bw.bw_histogram 2464449,273615,85141,26646,

dspatch.pb.lookup 7604402
dspatch.pb.hit 5402442
dspatch.pb.evict 2201896
dspatch.pb.insert 2201960

dspatch.gen_pref.called 2201960
dspatch.gen_pref.reset 15015
dspatch.gen_pref.total 20508579

dspatch.dyn_selection.called 2201960
dspatch.dyn_selection.none 164
dspatch.dyn_selection.accp_reason1 15015
dspatch.dyn_selection.accp_reason2 44848
dspatch.dyn_selection.covp_reason1 0
dspatch.dyn_selection.covp_reason2 2141933

dspatch.spt.called 2201896
dspatch.spt.or_count_incr 385997
dspatch.spt.measure_covP_incr 1524518
dspatch.spt.bmp_cov_reset 69731
dspatch.spt.bmp_cov_update 4291
dspatch.spt.measure_accP_incr 461923
dspatch.spt.measure_accP_decr 1739973
dspatch.spt.bmp_acc_update 2201896

dspatch.pref_buffer.spilled 119119
dspatch.pref_buffer.buffered 20389460
dspatch.pref_buffer.issued 20389460

dspatch.bw.called 2849851
dspatch.bw.bw_histogram 2464449,273615,85141,26646,

dspatch.pb.lookup 11089218
dspatch.pb.hit 7749123
dspatch.pb.evict 3340031
dspatch.pb.insert 3340095

dspatch.gen_pref.called 3340095
dspatch.gen_pref.reset 18326
dspatch.gen_pref.total 30915954

dspatch.dyn_selection.called 3340095
dspatch.dyn_selection.none 108
dspatch.dyn_selection.accp_reason1 18326
dspatch.dyn_selection.accp_reason2 64288
dspatch.dyn_selection.covp_reason1 0
dspatch.dyn_selection.covp_reason2 3257373

dspatch.spt.called 3340031
dspatch.spt.or_count_incr 554978
dspatch.spt.measure_covP_incr 2104126
dspatch.spt.bmp_cov_reset 79769
dspatch.spt.bmp_cov_update 11933
dspatch.spt.measure_accP_incr 625605
dspatch.spt.measure_accP_decr 2714426
dspatch.spt.bmp_acc_update 3340031

dspatch.pref_buffer.spilled 240885
dspatch.pref_buffer.buffered 30675069
dspatch.pref_buffer.issued 30675069

dspatch.bw.called 2849851
dspatch.bw.bw_histogram 2464449,273615,85141,26646,

Channel_0_RQ_row_buffer_hit 850371
Channel_0_RQ_row_buffer_miss 1863122
Channel_0_WQ_row_buffer_hit 65977
Channel_0_WQ_row_buffer_miss 356924
Channel_0_WQ_full 0
Channel_0_dbus_congested 1376628

Channel_1_RQ_row_buffer_hit 856886
Channel_1_RQ_row_buffer_miss 1854073
Channel_1_WQ_row_buffer_hit 65327
Channel_1_WQ_row_buffer_miss 356102
Channel_1_WQ_full 0
Channel_1_dbus_congested 1378923

avg_congested_cycle 10

DRAM_bw_pochs 2849851
DRAM_bw_level_0 2464449
DRAM_bw_level_1 273615
DRAM_bw_level_2 85141
DRAM_bw_level_3 26646
