*************************************************
   ChampSim Multicore Out-of-Order Simulator
   Last compiled: Mar 31 2025 20:14:32
*************************************************
parsing config file: /data3/config/bingo.ini

trace_0 /data3/STREAMING/traces/streaming_phase5_core0.trace.xz
trace_1 /data3/STREAMING/traces/streaming_phase5_core1.trace.xz
trace_2 /data3/STREAMING/traces/streaming_phase5_core2.trace.xz
trace_3 /data3/STREAMING/traces/streaming_phase5_core3.trace.xz
adding L2C_PREFETCHER: Bingo
adding L2C_PREFETCHER: Bingo
adding L2C_PREFETCHER: Bingo
adding L2C_PREFETCHER: Bingo
Initialize SHIP state
warmup_instructions 50000000
simulation_instructions 150000000
champsim_seed 8866
measure_ipc 0
measure_ipc_epoch 1000
measure_dram_bw 1
measure_dram_bw_epoch 256
measure_cache_acc 1
measure_cache_acc_epoch 1024
l1d_perfect 0
l2c_perfect 0
llc_perfect 0
l1d_semi_perfect 0
l2c_semi_perfect 0
llc_semi_perfect 0
semi_perfect_cache_page_buffer_size 64

num_cpus 4
cpu_freq 4000
dram_io_freq 2400
page_size 4096
block_size 64
max_read_per_cycle 8
max_fill_per_cycle 1
dram_channels 2
log2_dram_channels 1
dram_ranks 1
dram_banks 8
dram_rows 65536
dram_columns 128
dram_row_size 8
dram_size 8192
dram_pages 2097152

fetch_width 6
decode_width 6
exec_width 4
lq_width 2
sq_width 2
retire_width 4
scheduler_size 128
branch_mispredict_penalty 20
rob_size 256
lq_size 72
sq_size 56
num_instr_destinations_sparc 4
num_instr_destinations 2
num_instr_sources 4

itlb_set 16
itlb_way 8
itlb_rq_size 16
itlb_wq_size 16
itlb_pq_size 0
itlb_mshr_size 8
itlb_latency 1

dtlb_set 16
dtlb_way 4
dtlb_rq_size 16
dtlb_wq_size 16
dtlb_pq_size 0
dtlb_mshr_size 8
dtlb_latency 1

stlb_set 128
stlb_way 12
stlb_rq_size 32
stlb_wq_size 32
stlb_pq_size 0
stlb_mshr_size 16
stlb_latency 8

l1i_size 32
l1i_set 64
l1i_way 8
l1i_rq_size 64
l1i_wq_size 64
l1i_pq_size 8
l1i_mshr_size 8
l1i_latency 1

l1d_size 32
l1d_set 64
l1d_way 8
l1d_rq_size 64
l1d_wq_size 64
l1d_pq_size 8
l1d_mshr_size 16
l1d_latency 4

l2c_size 256
l2c_set 512
l2c_way 8
l2c_rq_size 32
l2c_wq_size 32
l2c_pq_size 32
l2c_mshr_size 32
l2c_latency 10

llc_size 8192
llc_set 8192
llc_way 16
llc_rq_size 128
llc_wq_size 128
llc_pq_size 128
llc_mshr_size 256
llc_latency 20

dram_channel_width 8
dram_wq_size 64
dram_rq_size 64
tRP 15
tRCD 15
tCAS 12.5
dram_dbus_turn_around_time 30
dram_write_high_wm 56
dram_write_low_wm 48
min_dram_writes_per_switch 16
dram_mtps 2400
dram_dbus_return_time 13

bingo_region_size 2048
bingo_pattern_len 32
bingo_pc_width 16
bingo_min_addr_width 5
bingo_max_addr_width 16
bingo_ft_size 64
bingo_at_size 128
bingo_pht_size 4096
bingo_pht_ways 16
bingo_pf_streamer_size 128
bingo_debug_level 0
bingo_l1d_thresh 1.01
bingo_l2c_thresh 0.8
bingo_llc_thresh 0.05
bingo_pc_address_fill_level L2


Heartbeat CPU  2 instructions:    1000001 cycles:     385528 heartbeat IPC: 2.59385 cumulative IPC: 2.59385 (Simulation time: 0 hr 0 min 5 sec) 
Heartbeat CPU  0 instructions:    1000003 cycles:     477950 heartbeat IPC: 2.09228 cumulative IPC: 2.09228 (Simulation time: 0 hr 0 min 6 sec) 
Heartbeat CPU  3 instructions:    1000003 cycles:     588241 heartbeat IPC: 1.69999 cumulative IPC: 1.69999 (Simulation time: 0 hr 0 min 8 sec) 
Heartbeat CPU  1 instructions:    1000000 cycles:     615318 heartbeat IPC: 1.62518 cumulative IPC: 1.62518 (Simulation time: 0 hr 0 min 8 sec) 
Heartbeat CPU  2 instructions:    2000001 cycles:     688636 heartbeat IPC: 3.29915 cumulative IPC: 2.90429 (Simulation time: 0 hr 0 min 9 sec) 
Heartbeat CPU  0 instructions:    2000003 cycles:     960640 heartbeat IPC: 2.07172 cumulative IPC: 2.08195 (Simulation time: 0 hr 0 min 13 sec) 
Heartbeat CPU  2 instructions:    3000002 cycles:     995113 heartbeat IPC: 3.26289 cumulative IPC: 3.01473 (Simulation time: 0 hr 0 min 14 sec) 
Heartbeat CPU  1 instructions:    2000002 cycles:    1129331 heartbeat IPC: 1.94548 cumulative IPC: 1.77096 (Simulation time: 0 hr 0 min 15 sec) 
Heartbeat CPU  3 instructions:    2000003 cycles:    1145726 heartbeat IPC: 1.79377 cumulative IPC: 1.74562 (Simulation time: 0 hr 0 min 16 sec) 
Heartbeat CPU  0 instructions:    3000002 cycles:    1435662 heartbeat IPC: 2.10516 cumulative IPC: 2.08963 (Simulation time: 0 hr 0 min 19 sec) 
Heartbeat CPU  2 instructions:    4000000 cycles:    1449678 heartbeat IPC: 2.19990 cumulative IPC: 2.75923 (Simulation time: 0 hr 0 min 20 sec) 
Heartbeat CPU  3 instructions:    3000000 cycles:    1631966 heartbeat IPC: 2.05659 cumulative IPC: 1.83827 (Simulation time: 0 hr 0 min 22 sec) 
Heartbeat CPU  1 instructions:    3000003 cycles:    1650715 heartbeat IPC: 1.91797 cumulative IPC: 1.81740 (Simulation time: 0 hr 0 min 22 sec) 
Heartbeat CPU  2 instructions:    5000002 cycles:    1768774 heartbeat IPC: 3.13386 cumulative IPC: 2.82682 (Simulation time: 0 hr 0 min 24 sec) 
Heartbeat CPU  0 instructions:    4000000 cycles:    1895976 heartbeat IPC: 2.17243 cumulative IPC: 2.10973 (Simulation time: 0 hr 0 min 26 sec) 
Heartbeat CPU  2 instructions:    6000001 cycles:    2067110 heartbeat IPC: 3.35192 cumulative IPC: 2.90260 (Simulation time: 0 hr 0 min 29 sec) 
Heartbeat CPU  3 instructions:    4000000 cycles:    2151218 heartbeat IPC: 1.92585 cumulative IPC: 1.85941 (Simulation time: 0 hr 0 min 30 sec) 
Heartbeat CPU  1 instructions:    4000000 cycles:    2218988 heartbeat IPC: 1.75971 cumulative IPC: 1.80262 (Simulation time: 0 hr 0 min 31 sec) 
Heartbeat CPU  2 instructions:    7000001 cycles:    2362350 heartbeat IPC: 3.38707 cumulative IPC: 2.96315 (Simulation time: 0 hr 0 min 33 sec) 
Heartbeat CPU  0 instructions:    5000002 cycles:    2386307 heartbeat IPC: 2.03944 cumulative IPC: 2.09529 (Simulation time: 0 hr 0 min 34 sec) 
Heartbeat CPU  3 instructions:    5000003 cycles:    2625922 heartbeat IPC: 2.10658 cumulative IPC: 1.90409 (Simulation time: 0 hr 0 min 38 sec) 
Heartbeat CPU  2 instructions:    8000000 cycles:    2708030 heartbeat IPC: 2.89285 cumulative IPC: 2.95418 (Simulation time: 0 hr 0 min 39 sec) 
Heartbeat CPU  1 instructions:    5000000 cycles:    2741323 heartbeat IPC: 1.91448 cumulative IPC: 1.82394 (Simulation time: 0 hr 0 min 39 sec) 
Heartbeat CPU  0 instructions:    6000003 cycles:    2831300 heartbeat IPC: 2.24723 cumulative IPC: 2.11917 (Simulation time: 0 hr 0 min 40 sec) 
Heartbeat CPU  3 instructions:    6000001 cycles:    3091009 heartbeat IPC: 2.15013 cumulative IPC: 1.94111 (Simulation time: 0 hr 0 min 44 sec) 
Heartbeat CPU  0 instructions:    7000000 cycles:    3210973 heartbeat IPC: 2.63384 cumulative IPC: 2.18002 (Simulation time: 0 hr 0 min 45 sec) 
Heartbeat CPU  1 instructions:    6000000 cycles:    3231896 heartbeat IPC: 2.03843 cumulative IPC: 1.85650 (Simulation time: 0 hr 0 min 46 sec) 
Heartbeat CPU  2 instructions:    9000000 cycles:    3453746 heartbeat IPC: 1.34099 cumulative IPC: 2.60587 (Simulation time: 0 hr 0 min 49 sec) 
Heartbeat CPU  3 instructions:    7000001 cycles:    3552412 heartbeat IPC: 2.16730 cumulative IPC: 1.97049 (Simulation time: 0 hr 0 min 50 sec) 
Heartbeat CPU  0 instructions:    8000000 cycles:    3561901 heartbeat IPC: 2.84959 cumulative IPC: 2.24599 (Simulation time: 0 hr 0 min 50 sec) 
Heartbeat CPU  1 instructions:    7000002 cycles:    3734210 heartbeat IPC: 1.99079 cumulative IPC: 1.87456 (Simulation time: 0 hr 0 min 52 sec) 
Heartbeat CPU  3 instructions:    8000000 cycles:    4017134 heartbeat IPC: 2.15182 cumulative IPC: 1.99147 (Simulation time: 0 hr 0 min 56 sec) 
Heartbeat CPU  0 instructions:    9000001 cycles:    4165638 heartbeat IPC: 1.65635 cumulative IPC: 2.16053 (Simulation time: 0 hr 0 min 57 sec) 
Heartbeat CPU  2 instructions:   10000002 cycles:    4184039 heartbeat IPC: 1.36932 cumulative IPC: 2.39004 (Simulation time: 0 hr 0 min 58 sec) 
Heartbeat CPU  1 instructions:    8000000 cycles:    4217908 heartbeat IPC: 2.06740 cumulative IPC: 1.89667 (Simulation time: 0 hr 0 min 58 sec) 
Heartbeat CPU  3 instructions:    9000000 cycles:    4547186 heartbeat IPC: 1.88661 cumulative IPC: 1.97925 (Simulation time: 0 hr 1 min 2 sec) 
Heartbeat CPU  0 instructions:   10000001 cycles:    4731664 heartbeat IPC: 1.76670 cumulative IPC: 2.11342 (Simulation time: 0 hr 1 min 4 sec) 
Heartbeat CPU  1 instructions:    9000003 cycles:    4775628 heartbeat IPC: 1.79302 cumulative IPC: 1.88457 (Simulation time: 0 hr 1 min 5 sec) 
Heartbeat CPU  2 instructions:   11000001 cycles:    4807560 heartbeat IPC: 1.60379 cumulative IPC: 2.28806 (Simulation time: 0 hr 1 min 5 sec) 
Heartbeat CPU  3 instructions:   10000000 cycles:    5065284 heartbeat IPC: 1.93014 cumulative IPC: 1.97422 (Simulation time: 0 hr 1 min 8 sec) 
Heartbeat CPU  0 instructions:   11000001 cycles:    5291867 heartbeat IPC: 1.78507 cumulative IPC: 2.07866 (Simulation time: 0 hr 1 min 11 sec) 
Heartbeat CPU  1 instructions:   10000001 cycles:    5329580 heartbeat IPC: 1.80521 cumulative IPC: 1.87632 (Simulation time: 0 hr 1 min 12 sec) 
Heartbeat CPU  2 instructions:   12000000 cycles:    5407473 heartbeat IPC: 1.66691 cumulative IPC: 2.21915 (Simulation time: 0 hr 1 min 13 sec) 
Heartbeat CPU  3 instructions:   11000001 cycles:    5608882 heartbeat IPC: 1.83960 cumulative IPC: 1.96118 (Simulation time: 0 hr 1 min 15 sec) 
Heartbeat CPU  0 instructions:   12000000 cycles:    5828730 heartbeat IPC: 1.86267 cumulative IPC: 2.05877 (Simulation time: 0 hr 1 min 18 sec) 
Heartbeat CPU  1 instructions:   11000003 cycles:    5839579 heartbeat IPC: 1.96079 cumulative IPC: 1.88370 (Simulation time: 0 hr 1 min 18 sec) 
Heartbeat CPU  2 instructions:   13000001 cycles:    5981723 heartbeat IPC: 1.74140 cumulative IPC: 2.17329 (Simulation time: 0 hr 1 min 20 sec) 
Heartbeat CPU  3 instructions:   12000000 cycles:    6112834 heartbeat IPC: 1.98431 cumulative IPC: 1.96308 (Simulation time: 0 hr 1 min 22 sec) 
Heartbeat CPU  2 instructions:   14000003 cycles:    6294478 heartbeat IPC: 3.19740 cumulative IPC: 2.22417 (Simulation time: 0 hr 1 min 25 sec) 
Heartbeat CPU  0 instructions:   13000003 cycles:    6342437 heartbeat IPC: 1.94664 cumulative IPC: 2.04969 (Simulation time: 0 hr 1 min 25 sec) 
Heartbeat CPU  1 instructions:   12000000 cycles:    6343597 heartbeat IPC: 1.98405 cumulative IPC: 1.89167 (Simulation time: 0 hr 1 min 25 sec) 
Heartbeat CPU  2 instructions:   15000003 cycles:    6598824 heartbeat IPC: 3.28573 cumulative IPC: 2.27313 (Simulation time: 0 hr 1 min 29 sec) 
Heartbeat CPU  3 instructions:   13000002 cycles:    6641980 heartbeat IPC: 1.88984 cumulative IPC: 1.95725 (Simulation time: 0 hr 1 min 30 sec) 
Heartbeat CPU  0 instructions:   14000000 cycles:    6811101 heartbeat IPC: 2.13372 cumulative IPC: 2.05547 (Simulation time: 0 hr 1 min 33 sec) 
Heartbeat CPU  1 instructions:   13000003 cycles:    6879838 heartbeat IPC: 1.86484 cumulative IPC: 1.88958 (Simulation time: 0 hr 1 min 34 sec) 
Heartbeat CPU  2 instructions:   16000000 cycles:    6903142 heartbeat IPC: 3.28603 cumulative IPC: 2.31779 (Simulation time: 0 hr 1 min 34 sec) 
Heartbeat CPU  3 instructions:   14000000 cycles:    7111511 heartbeat IPC: 2.12978 cumulative IPC: 1.96864 (Simulation time: 0 hr 1 min 37 sec) 
Heartbeat CPU  2 instructions:   17000003 cycles:    7206256 heartbeat IPC: 3.29910 cumulative IPC: 2.35906 (Simulation time: 0 hr 1 min 39 sec) 
Heartbeat CPU  0 instructions:   15000002 cycles:    7330060 heartbeat IPC: 1.92694 cumulative IPC: 2.04637 (Simulation time: 0 hr 1 min 40 sec) 
Heartbeat CPU  1 instructions:   14000001 cycles:    7393309 heartbeat IPC: 1.94753 cumulative IPC: 1.89360 (Simulation time: 0 hr 1 min 42 sec) 
Heartbeat CPU  2 instructions:   18000002 cycles:    7486389 heartbeat IPC: 3.56973 cumulative IPC: 2.40436 (Simulation time: 0 hr 1 min 43 sec) 
Heartbeat CPU  3 instructions:   15000003 cycles:    7577917 heartbeat IPC: 2.14406 cumulative IPC: 1.97944 (Simulation time: 0 hr 1 min 45 sec) 
Heartbeat CPU  2 instructions:   19000003 cycles:    7759226 heartbeat IPC: 3.66520 cumulative IPC: 2.44870 (Simulation time: 0 hr 1 min 48 sec) 
Heartbeat CPU  0 instructions:   16000000 cycles:    7805115 heartbeat IPC: 2.10502 cumulative IPC: 2.04994 (Simulation time: 0 hr 1 min 48 sec) 
Heartbeat CPU  1 instructions:   15000002 cycles:    7856171 heartbeat IPC: 2.16047 cumulative IPC: 1.90933 (Simulation time: 0 hr 1 min 49 sec) 
Heartbeat CPU  2 instructions:   20000000 cycles:    8037434 heartbeat IPC: 3.59442 cumulative IPC: 2.48836 (Simulation time: 0 hr 1 min 52 sec) 
Heartbeat CPU  3 instructions:   16000000 cycles:    8056365 heartbeat IPC: 2.09009 cumulative IPC: 1.98601 (Simulation time: 0 hr 1 min 52 sec) 
Heartbeat CPU  0 instructions:   17000000 cycles:    8303778 heartbeat IPC: 2.00536 cumulative IPC: 2.04726 (Simulation time: 0 hr 1 min 56 sec) 
Heartbeat CPU  2 instructions:   21000001 cycles:    8313762 heartbeat IPC: 3.61889 cumulative IPC: 2.52593 (Simulation time: 0 hr 1 min 56 sec) 
Heartbeat CPU  1 instructions:   16000000 cycles:    8316707 heartbeat IPC: 2.17138 cumulative IPC: 1.92384 (Simulation time: 0 hr 1 min 56 sec) 
Heartbeat CPU  3 instructions:   17000003 cycles:    8545055 heartbeat IPC: 2.04629 cumulative IPC: 1.98946 (Simulation time: 0 hr 2 min 0 sec) 
Heartbeat CPU  1 instructions:   17000001 cycles:    8770259 heartbeat IPC: 2.20482 cumulative IPC: 1.93837 (Simulation time: 0 hr 2 min 3 sec) 
Heartbeat CPU  0 instructions:   18000000 cycles:    8818625 heartbeat IPC: 1.94232 cumulative IPC: 2.04113 (Simulation time: 0 hr 2 min 3 sec) 
Heartbeat CPU  2 instructions:   22000000 cycles:    8845694 heartbeat IPC: 1.87994 cumulative IPC: 2.48709 (Simulation time: 0 hr 2 min 4 sec) 
Heartbeat CPU  3 instructions:   18000003 cycles:    8947254 heartbeat IPC: 2.48633 cumulative IPC: 2.01179 (Simulation time: 0 hr 2 min 5 sec) 
Heartbeat CPU  1 instructions:   18000001 cycles:    9053845 heartbeat IPC: 3.52627 cumulative IPC: 1.98811 (Simulation time: 0 hr 2 min 7 sec) 
Heartbeat CPU  3 instructions:   19000002 cycles:    9223019 heartbeat IPC: 3.62627 cumulative IPC: 2.06006 (Simulation time: 0 hr 2 min 9 sec) 
Heartbeat CPU  0 instructions:   19000003 cycles:    9293362 heartbeat IPC: 2.10644 cumulative IPC: 2.04447 (Simulation time: 0 hr 2 min 10 sec) 
Heartbeat CPU  1 instructions:   19000000 cycles:    9334048 heartbeat IPC: 3.56884 cumulative IPC: 2.03556 (Simulation time: 0 hr 2 min 11 sec) 
Heartbeat CPU  3 instructions:   20000000 cycles:    9494569 heartbeat IPC: 3.68256 cumulative IPC: 2.10647 (Simulation time: 0 hr 2 min 13 sec) 
Heartbeat CPU  1 instructions:   20000000 cycles:    9670914 heartbeat IPC: 2.96854 cumulative IPC: 2.06806 (Simulation time: 0 hr 2 min 16 sec) 
Heartbeat CPU  2 instructions:   23000002 cycles:    9698197 heartbeat IPC: 1.17302 cumulative IPC: 2.37158 (Simulation time: 0 hr 2 min 16 sec) 
Heartbeat CPU  0 instructions:   20000000 cycles:    9752664 heartbeat IPC: 2.17721 cumulative IPC: 2.05072 (Simulation time: 0 hr 2 min 17 sec) 
Heartbeat CPU  3 instructions:   21000000 cycles:    9771905 heartbeat IPC: 3.60573 cumulative IPC: 2.14902 (Simulation time: 0 hr 2 min 18 sec) 
Heartbeat CPU  1 instructions:   21000003 cycles:   10039596 heartbeat IPC: 2.71237 cumulative IPC: 2.09172 (Simulation time: 0 hr 2 min 22 sec) 
Heartbeat CPU  3 instructions:   22000002 cycles:   10121235 heartbeat IPC: 2.86263 cumulative IPC: 2.17365 (Simulation time: 0 hr 2 min 23 sec) 
Heartbeat CPU  0 instructions:   21000002 cycles:   10209087 heartbeat IPC: 2.19095 cumulative IPC: 2.05699 (Simulation time: 0 hr 2 min 24 sec) 
Heartbeat CPU  2 instructions:   24000000 cycles:   10313728 heartbeat IPC: 1.62461 cumulative IPC: 2.32700 (Simulation time: 0 hr 2 min 25 sec) 
Heartbeat CPU  1 instructions:   22000000 cycles:   10464026 heartbeat IPC: 2.35609 cumulative IPC: 2.10244 (Simulation time: 0 hr 2 min 27 sec) 
Heartbeat CPU  3 instructions:   23000000 cycles:   10657861 heartbeat IPC: 1.86349 cumulative IPC: 2.15803 (Simulation time: 0 hr 2 min 30 sec) 
Heartbeat CPU  0 instructions:   22000001 cycles:   10668577 heartbeat IPC: 2.17632 cumulative IPC: 2.06213 (Simulation time: 0 hr 2 min 30 sec) 
Heartbeat CPU  2 instructions:   25000003 cycles:   10772977 heartbeat IPC: 2.17747 cumulative IPC: 2.32062 (Simulation time: 0 hr 2 min 32 sec) 
Heartbeat CPU  1 instructions:   23000001 cycles:   10947717 heartbeat IPC: 2.06744 cumulative IPC: 2.10089 (Simulation time: 0 hr 2 min 35 sec) 
Heartbeat CPU  2 instructions:   26000003 cycles:   11082163 heartbeat IPC: 3.23430 cumulative IPC: 2.34611 (Simulation time: 0 hr 2 min 37 sec) 
Heartbeat CPU  0 instructions:   23000003 cycles:   11167641 heartbeat IPC: 2.00376 cumulative IPC: 2.05952 (Simulation time: 0 hr 2 min 38 sec) 
Heartbeat CPU  3 instructions:   24000000 cycles:   11174383 heartbeat IPC: 1.93603 cumulative IPC: 2.14777 (Simulation time: 0 hr 2 min 38 sec) 
Heartbeat CPU  2 instructions:   27000001 cycles:   11384216 heartbeat IPC: 3.31067 cumulative IPC: 2.37170 (Simulation time: 0 hr 2 min 41 sec) 
Heartbeat CPU  1 instructions:   24000000 cycles:   11392896 heartbeat IPC: 2.24629 cumulative IPC: 2.10658 (Simulation time: 0 hr 2 min 42 sec) 
Heartbeat CPU  3 instructions:   25000002 cycles:   11676890 heartbeat IPC: 1.99003 cumulative IPC: 2.14098 (Simulation time: 0 hr 2 min 46 sec) 
Heartbeat CPU  0 instructions:   24000000 cycles:   11708195 heartbeat IPC: 1.84995 cumulative IPC: 2.04985 (Simulation time: 0 hr 2 min 46 sec) 
Heartbeat CPU  2 instructions:   28000000 cycles:   11761205 heartbeat IPC: 2.65259 cumulative IPC: 2.38071 (Simulation time: 0 hr 2 min 47 sec) 
Heartbeat CPU  1 instructions:   25000000 cycles:   11887335 heartbeat IPC: 2.02249 cumulative IPC: 2.10308 (Simulation time: 0 hr 2 min 49 sec) 
Heartbeat CPU  3 instructions:   26000001 cycles:   12135146 heartbeat IPC: 2.18218 cumulative IPC: 2.14254 (Simulation time: 0 hr 2 min 52 sec) 
Heartbeat CPU  0 instructions:   25000001 cycles:   12203791 heartbeat IPC: 2.01777 cumulative IPC: 2.04854 (Simulation time: 0 hr 2 min 53 sec) 
Heartbeat CPU  1 instructions:   26000001 cycles:   12351630 heartbeat IPC: 2.15381 cumulative IPC: 2.10499 (Simulation time: 0 hr 2 min 55 sec) 
Heartbeat CPU  2 instructions:   29000002 cycles:   12372715 heartbeat IPC: 1.63530 cumulative IPC: 2.34387 (Simulation time: 0 hr 2 min 56 sec) 
Heartbeat CPU  3 instructions:   27000001 cycles:   12577567 heartbeat IPC: 2.26029 cumulative IPC: 2.14668 (Simulation time: 0 hr 2 min 59 sec) 
Heartbeat CPU  0 instructions:   26000003 cycles:   12661636 heartbeat IPC: 2.18415 cumulative IPC: 2.05345 (Simulation time: 0 hr 3 min 0 sec) 
Heartbeat CPU  1 instructions:   27000000 cycles:   12812173 heartbeat IPC: 2.17135 cumulative IPC: 2.10737 (Simulation time: 0 hr 3 min 2 sec) 
Heartbeat CPU  2 instructions:   30000000 cycles:   12961727 heartbeat IPC: 1.69775 cumulative IPC: 2.31451 (Simulation time: 0 hr 3 min 4 sec) 
Heartbeat CPU  3 instructions:   28000000 cycles:   13056916 heartbeat IPC: 2.08616 cumulative IPC: 2.14446 (Simulation time: 0 hr 3 min 6 sec) 
Heartbeat CPU  0 instructions:   27000003 cycles:   13106665 heartbeat IPC: 2.24704 cumulative IPC: 2.06002 (Simulation time: 0 hr 3 min 6 sec) 
Heartbeat CPU  1 instructions:   28000000 cycles:   13266827 heartbeat IPC: 2.19947 cumulative IPC: 2.11053 (Simulation time: 0 hr 3 min 8 sec) 
Heartbeat CPU  2 instructions:   31000002 cycles:   13530247 heartbeat IPC: 1.75896 cumulative IPC: 2.29116 (Simulation time: 0 hr 3 min 12 sec) 
Heartbeat CPU  0 instructions:   28000000 cycles:   13559986 heartbeat IPC: 2.20594 cumulative IPC: 2.06490 (Simulation time: 0 hr 3 min 12 sec) 
Heartbeat CPU  3 instructions:   29000000 cycles:   13614095 heartbeat IPC: 1.79476 cumulative IPC: 2.13015 (Simulation time: 0 hr 3 min 13 sec) 
Heartbeat CPU  1 instructions:   29000002 cycles:   13859303 heartbeat IPC: 1.68784 cumulative IPC: 2.09246 (Simulation time: 0 hr 3 min 16 sec) 
Heartbeat CPU  3 instructions:   30000001 cycles:   14053726 heartbeat IPC: 2.27464 cumulative IPC: 2.13467 (Simulation time: 0 hr 3 min 18 sec) 
Heartbeat CPU  2 instructions:   32000000 cycles:   14078853 heartbeat IPC: 1.82280 cumulative IPC: 2.27291 (Simulation time: 0 hr 3 min 18 sec) 
Heartbeat CPU  1 instructions:   30000002 cycles:   14376371 heartbeat IPC: 1.93398 cumulative IPC: 2.08676 (Simulation time: 0 hr 3 min 22 sec) 
Heartbeat CPU  0 instructions:   29000001 cycles:   14512096 heartbeat IPC: 1.05030 cumulative IPC: 1.99833 (Simulation time: 0 hr 3 min 23 sec) 
Heartbeat CPU  3 instructions:   31000000 cycles:   14524005 heartbeat IPC: 2.12640 cumulative IPC: 2.13440 (Simulation time: 0 hr 3 min 24 sec) 
Heartbeat CPU  2 instructions:   33000001 cycles:   14612686 heartbeat IPC: 1.87325 cumulative IPC: 2.25831 (Simulation time: 0 hr 3 min 25 sec) 
Heartbeat CPU  1 instructions:   31000000 cycles:   14870166 heartbeat IPC: 2.02513 cumulative IPC: 2.08471 (Simulation time: 0 hr 3 min 28 sec) 
Heartbeat CPU  3 instructions:   32000000 cycles:   14962425 heartbeat IPC: 2.28092 cumulative IPC: 2.13869 (Simulation time: 0 hr 3 min 29 sec) 
Heartbeat CPU  2 instructions:   34000002 cycles:   15160551 heartbeat IPC: 1.82527 cumulative IPC: 2.24266 (Simulation time: 0 hr 3 min 31 sec) 
Heartbeat CPU  1 instructions:   32000000 cycles:   15353468 heartbeat IPC: 2.06910 cumulative IPC: 2.08422 (Simulation time: 0 hr 3 min 33 sec) 
Heartbeat CPU  0 instructions:   30000000 cycles:   15406400 heartbeat IPC: 1.11819 cumulative IPC: 1.94724 (Simulation time: 0 hr 3 min 34 sec) 
Heartbeat CPU  3 instructions:   33000000 cycles:   15435948 heartbeat IPC: 2.11183 cumulative IPC: 2.13787 (Simulation time: 0 hr 3 min 34 sec) 
Heartbeat CPU  2 instructions:   35000002 cycles:   15733606 heartbeat IPC: 1.74503 cumulative IPC: 2.22454 (Simulation time: 0 hr 3 min 38 sec) 
Heartbeat CPU  1 instructions:   33000000 cycles:   15866934 heartbeat IPC: 1.94755 cumulative IPC: 2.07980 (Simulation time: 0 hr 3 min 40 sec) 
Heartbeat CPU  3 instructions:   34000001 cycles:   15896201 heartbeat IPC: 2.17272 cumulative IPC: 2.13888 (Simulation time: 0 hr 3 min 40 sec) 
Heartbeat CPU  0 instructions:   31000000 cycles:   16045319 heartbeat IPC: 1.56514 cumulative IPC: 1.93203 (Simulation time: 0 hr 3 min 42 sec) 
Heartbeat CPU  2 instructions:   36000000 cycles:   16296398 heartbeat IPC: 1.77685 cumulative IPC: 2.20908 (Simulation time: 0 hr 3 min 45 sec) 
Heartbeat CPU  1 instructions:   34000000 cycles:   16345905 heartbeat IPC: 2.08781 cumulative IPC: 2.08003 (Simulation time: 0 hr 3 min 46 sec) 
Heartbeat CPU  3 instructions:   35000001 cycles:   16436710 heartbeat IPC: 1.85011 cumulative IPC: 2.12938 (Simulation time: 0 hr 3 min 47 sec) 
Heartbeat CPU  0 instructions:   32000000 cycles:   16576907 heartbeat IPC: 1.88116 cumulative IPC: 1.93040 (Simulation time: 0 hr 3 min 49 sec) 
Heartbeat CPU  1 instructions:   35000000 cycles:   16842203 heartbeat IPC: 2.01492 cumulative IPC: 2.07811 (Simulation time: 0 hr 3 min 53 sec) 
Heartbeat CPU  2 instructions:   37000000 cycles:   16884825 heartbeat IPC: 1.69945 cumulative IPC: 2.19132 (Simulation time: 0 hr 3 min 53 sec) 
Heartbeat CPU  3 instructions:   36000000 cycles:   16942956 heartbeat IPC: 1.97532 cumulative IPC: 2.12478 (Simulation time: 0 hr 3 min 54 sec) 
Heartbeat CPU  0 instructions:   33000000 cycles:   17062993 heartbeat IPC: 2.05725 cumulative IPC: 1.93401 (Simulation time: 0 hr 3 min 56 sec) 
Heartbeat CPU  1 instructions:   36000000 cycles:   17351730 heartbeat IPC: 1.96260 cumulative IPC: 2.07472 (Simulation time: 0 hr 4 min 0 sec) 
Heartbeat CPU  3 instructions:   37000000 cycles:   17465550 heartbeat IPC: 1.91353 cumulative IPC: 2.11846 (Simulation time: 0 hr 4 min 1 sec) 
Heartbeat CPU  2 instructions:   38000000 cycles:   17483024 heartbeat IPC: 1.67168 cumulative IPC: 2.17354 (Simulation time: 0 hr 4 min 1 sec) 
Heartbeat CPU  0 instructions:   34000001 cycles:   17551609 heartbeat IPC: 2.04660 cumulative IPC: 1.93714 (Simulation time: 0 hr 4 min 2 sec) 
Heartbeat CPU  1 instructions:   37000000 cycles:   17880769 heartbeat IPC: 1.89022 cumulative IPC: 2.06926 (Simulation time: 0 hr 4 min 7 sec) 
Heartbeat CPU  3 instructions:   38000002 cycles:   18015071 heartbeat IPC: 1.81977 cumulative IPC: 2.10935 (Simulation time: 0 hr 4 min 8 sec) 
Heartbeat CPU  2 instructions:   39000002 cycles:   18025575 heartbeat IPC: 1.84315 cumulative IPC: 2.16359 (Simulation time: 0 hr 4 min 9 sec) 
Heartbeat CPU  0 instructions:   35000000 cycles:   18063201 heartbeat IPC: 1.95468 cumulative IPC: 1.93764 (Simulation time: 0 hr 4 min 9 sec) 
Heartbeat CPU  1 instructions:   38000001 cycles:   18380411 heartbeat IPC: 2.00144 cumulative IPC: 2.06742 (Simulation time: 0 hr 4 min 13 sec) 
Heartbeat CPU  3 instructions:   39000000 cycles:   18576917 heartbeat IPC: 1.77984 cumulative IPC: 2.09938 (Simulation time: 0 hr 4 min 15 sec) 
Heartbeat CPU  0 instructions:   36000000 cycles:   18625593 heartbeat IPC: 1.77812 cumulative IPC: 1.93282 (Simulation time: 0 hr 4 min 16 sec) 
Heartbeat CPU  2 instructions:   40000000 cycles:   18683298 heartbeat IPC: 1.52039 cumulative IPC: 2.14095 (Simulation time: 0 hr 4 min 17 sec) 
Heartbeat CPU  1 instructions:   39000000 cycles:   18893422 heartbeat IPC: 1.94927 cumulative IPC: 2.06421 (Simulation time: 0 hr 4 min 20 sec) 
Heartbeat CPU  3 instructions:   40000000 cycles:   19093930 heartbeat IPC: 1.93419 cumulative IPC: 2.09491 (Simulation time: 0 hr 4 min 22 sec) 
Heartbeat CPU  0 instructions:   37000003 cycles:   19113983 heartbeat IPC: 2.04755 cumulative IPC: 1.93576 (Simulation time: 0 hr 4 min 23 sec) 
Heartbeat CPU  2 instructions:   41000002 cycles:   19271117 heartbeat IPC: 1.70121 cumulative IPC: 2.12754 (Simulation time: 0 hr 4 min 25 sec) 
Heartbeat CPU  1 instructions:   40000000 cycles:   19394405 heartbeat IPC: 1.99608 cumulative IPC: 2.06245 (Simulation time: 0 hr 4 min 26 sec) 
Heartbeat CPU  3 instructions:   41000003 cycles:   19593183 heartbeat IPC: 2.00300 cumulative IPC: 2.09256 (Simulation time: 0 hr 4 min 29 sec) 
Heartbeat CPU  0 instructions:   38000000 cycles:   19638865 heartbeat IPC: 1.90518 cumulative IPC: 1.93494 (Simulation time: 0 hr 4 min 30 sec) 
Heartbeat CPU  2 instructions:   42000003 cycles:   19856812 heartbeat IPC: 1.70738 cumulative IPC: 2.11514 (Simulation time: 0 hr 4 min 32 sec) 
Heartbeat CPU  1 instructions:   41000000 cycles:   19888866 heartbeat IPC: 2.02240 cumulative IPC: 2.06145 (Simulation time: 0 hr 4 min 33 sec) 
Heartbeat CPU  3 instructions:   42000002 cycles:   20120989 heartbeat IPC: 1.89463 cumulative IPC: 2.08737 (Simulation time: 0 hr 4 min 36 sec) 
Heartbeat CPU  0 instructions:   39000002 cycles:   20169802 heartbeat IPC: 1.88347 cumulative IPC: 1.93358 (Simulation time: 0 hr 4 min 37 sec) 
Heartbeat CPU  1 instructions:   42000000 cycles:   20401038 heartbeat IPC: 1.95247 cumulative IPC: 2.05872 (Simulation time: 0 hr 4 min 40 sec) 
Heartbeat CPU  2 instructions:   43000000 cycles:   20438131 heartbeat IPC: 1.72022 cumulative IPC: 2.10391 (Simulation time: 0 hr 4 min 40 sec) 
Heartbeat CPU  3 instructions:   43000003 cycles:   20703812 heartbeat IPC: 1.71579 cumulative IPC: 2.07691 (Simulation time: 0 hr 4 min 43 sec) 
Heartbeat CPU  0 instructions:   40000000 cycles:   20725352 heartbeat IPC: 1.80001 cumulative IPC: 1.93000 (Simulation time: 0 hr 4 min 44 sec) 
Heartbeat CPU  1 instructions:   43000002 cycles:   20906352 heartbeat IPC: 1.97897 cumulative IPC: 2.05679 (Simulation time: 0 hr 4 min 46 sec) 
Heartbeat CPU  2 instructions:   44000000 cycles:   21027895 heartbeat IPC: 1.69559 cumulative IPC: 2.09246 (Simulation time: 0 hr 4 min 48 sec) 
Heartbeat CPU  3 instructions:   44000000 cycles:   21225752 heartbeat IPC: 1.91592 cumulative IPC: 2.07295 (Simulation time: 0 hr 4 min 50 sec) 
Heartbeat CPU  0 instructions:   41000002 cycles:   21226799 heartbeat IPC: 1.99423 cumulative IPC: 1.93152 (Simulation time: 0 hr 4 min 50 sec) 
Heartbeat CPU  1 instructions:   44000000 cycles:   21416833 heartbeat IPC: 1.95893 cumulative IPC: 2.05446 (Simulation time: 0 hr 4 min 53 sec) 
Heartbeat CPU  2 instructions:   45000003 cycles:   21606771 heartbeat IPC: 1.72749 cumulative IPC: 2.08268 (Simulation time: 0 hr 4 min 55 sec) 
Heartbeat CPU  0 instructions:   42000001 cycles:   21732841 heartbeat IPC: 1.97612 cumulative IPC: 1.93256 (Simulation time: 0 hr 4 min 57 sec) 
Heartbeat CPU  3 instructions:   45000003 cycles:   21751122 heartbeat IPC: 1.90343 cumulative IPC: 2.06886 (Simulation time: 0 hr 4 min 57 sec) 
Heartbeat CPU  1 instructions:   45000002 cycles:   21943799 heartbeat IPC: 1.89766 cumulative IPC: 2.05069 (Simulation time: 0 hr 5 min 0 sec) 
Heartbeat CPU  2 instructions:   46000001 cycles:   22183343 heartbeat IPC: 1.73439 cumulative IPC: 2.07363 (Simulation time: 0 hr 5 min 3 sec) 
Heartbeat CPU  0 instructions:   43000001 cycles:   22258543 heartbeat IPC: 1.90222 cumulative IPC: 1.93184 (Simulation time: 0 hr 5 min 4 sec) 
Heartbeat CPU  3 instructions:   46000000 cycles:   22271553 heartbeat IPC: 1.92148 cumulative IPC: 2.06541 (Simulation time: 0 hr 5 min 4 sec) 
Heartbeat CPU  1 instructions:   46000002 cycles:   22445715 heartbeat IPC: 1.99237 cumulative IPC: 2.04939 (Simulation time: 0 hr 5 min 6 sec) 
Heartbeat CPU  2 instructions:   47000001 cycles:   22773156 heartbeat IPC: 1.69545 cumulative IPC: 2.06383 (Simulation time: 0 hr 5 min 10 sec) 
Heartbeat CPU  3 instructions:   47000001 cycles:   22776187 heartbeat IPC: 1.98164 cumulative IPC: 2.06356 (Simulation time: 0 hr 5 min 10 sec) 
Heartbeat CPU  0 instructions:   44000000 cycles:   22795104 heartbeat IPC: 1.86372 cumulative IPC: 1.93024 (Simulation time: 0 hr 5 min 11 sec) 
Heartbeat CPU  1 instructions:   47000002 cycles:   22983367 heartbeat IPC: 1.85994 cumulative IPC: 2.04496 (Simulation time: 0 hr 5 min 13 sec) 
Heartbeat CPU  3 instructions:   48000000 cycles:   23311854 heartbeat IPC: 1.86683 cumulative IPC: 2.05904 (Simulation time: 0 hr 5 min 17 sec) 
Heartbeat CPU  2 instructions:   48000000 cycles:   23339222 heartbeat IPC: 1.76658 cumulative IPC: 2.05662 (Simulation time: 0 hr 5 min 18 sec) 
Heartbeat CPU  0 instructions:   45000003 cycles:   23341632 heartbeat IPC: 1.82974 cumulative IPC: 1.92789 (Simulation time: 0 hr 5 min 18 sec) 
Heartbeat CPU  1 instructions:   48000000 cycles:   23503133 heartbeat IPC: 1.92394 cumulative IPC: 2.04228 (Simulation time: 0 hr 5 min 20 sec) 
Heartbeat CPU  2 instructions:   49000001 cycles:   23819720 heartbeat IPC: 2.08118 cumulative IPC: 2.05712 (Simulation time: 0 hr 5 min 24 sec) 
Heartbeat CPU  0 instructions:   46000002 cycles:   23850622 heartbeat IPC: 1.96467 cumulative IPC: 1.92867 (Simulation time: 0 hr 5 min 25 sec) 
Heartbeat CPU  3 instructions:   49000003 cycles:   23888333 heartbeat IPC: 1.73467 cumulative IPC: 2.05121 (Simulation time: 0 hr 5 min 25 sec) 
Heartbeat CPU  1 instructions:   49000001 cycles:   23988459 heartbeat IPC: 2.06047 cumulative IPC: 2.04265 (Simulation time: 0 hr 5 min 27 sec) 
Heartbeat CPU  2 instructions:   50000000 cycles:   24348090 heartbeat IPC: 1.89261 cumulative IPC: 2.05355 (Simulation time: 0 hr 5 min 31 sec) 
Heartbeat CPU  0 instructions:   47000001 cycles:   24357228 heartbeat IPC: 1.97392 cumulative IPC: 1.92961 (Simulation time: 0 hr 5 min 32 sec) 
Heartbeat CPU  3 instructions:   50000000 cycles:   24414585 heartbeat IPC: 1.90022 cumulative IPC: 2.04796 (Simulation time: 0 hr 5 min 32 sec) 
Heartbeat CPU  1 instructions:   50000000 cycles:   24446858 heartbeat IPC: 2.18150 cumulative IPC: 2.04525 (Simulation time: 0 hr 5 min 33 sec) 
Heartbeat CPU  0 instructions:   48000000 cycles:   24872540 heartbeat IPC: 1.94057 cumulative IPC: 1.92984 (Simulation time: 0 hr 5 min 38 sec) 
Heartbeat CPU  1 instructions:   51000000 cycles:   24938974 heartbeat IPC: 2.03204 cumulative IPC: 0.04010 (Simulation time: 0 hr 5 min 39 sec) 
Heartbeat CPU  3 instructions:   51000001 cycles:   24947469 heartbeat IPC: 1.87658 cumulative IPC: 0.04008 (Simulation time: 0 hr 5 min 39 sec) 
Heartbeat CPU  2 instructions:   51000002 cycles:   25054810 heartbeat IPC: 1.41499 cumulative IPC: 0.03991 (Simulation time: 0 hr 5 min 40 sec) 
Heartbeat CPU  0 instructions:   49000000 cycles:   25404721 heartbeat IPC: 1.87906 cumulative IPC: 1.92878 (Simulation time: 0 hr 5 min 45 sec) 
Heartbeat CPU  3 instructions:   52000000 cycles:   25479291 heartbeat IPC: 1.88033 cumulative IPC: 0.07850 (Simulation time: 0 hr 5 min 46 sec) 
Heartbeat CPU  1 instructions:   52000000 cycles:   25536927 heartbeat IPC: 1.67237 cumulative IPC: 0.07832 (Simulation time: 0 hr 5 min 46 sec) 
Heartbeat CPU  2 instructions:   52000000 cycles:   25653177 heartbeat IPC: 1.67121 cumulative IPC: 0.07796 (Simulation time: 0 hr 5 min 48 sec) 
Heartbeat CPU  0 instructions:   50000001 cycles:   25939918 heartbeat IPC: 1.86847 cumulative IPC: 1.92753 (Simulation time: 0 hr 5 min 51 sec) 

Warmup complete CPU  0 instructions:   50000001 cycles:   25939918 (Simulation time: 0 hr 5 min 51 sec) 
Warmup complete CPU  1 instructions:   52773889 cycles:   25939917 (Simulation time: 0 hr 5 min 51 sec) 
Warmup complete CPU  2 instructions:   52512700 cycles:   25939918 (Simulation time: 0 hr 5 min 51 sec) 
Warmup complete CPU  3 instructions:   52884345 cycles:   25939918 (Simulation time: 0 hr 5 min 51 sec) 

Heartbeat CPU  3 instructions:   53000003 cycles:   26482170 heartbeat IPC: 0.99713 cumulative IPC: 0.21329 (Simulation time: 0 hr 5 min 52 sec) 
Heartbeat CPU  1 instructions:   53000002 cycles:   27010233 heartbeat IPC: 0.67875 cumulative IPC: 0.21126 (Simulation time: 0 hr 5 min 53 sec) 
Heartbeat CPU  2 instructions:   53000000 cycles:   28824830 heartbeat IPC: 0.31529 cumulative IPC: 0.16891 (Simulation time: 0 hr 5 min 57 sec) 
Heartbeat CPU  0 instructions:   51000000 cycles:   30646113 heartbeat IPC: 0.21249 cumulative IPC: 0.21249 (Simulation time: 0 hr 6 min 0 sec) 
Heartbeat CPU  3 instructions:   54000002 cycles:   31204257 heartbeat IPC: 0.21177 cumulative IPC: 0.21193 (Simulation time: 0 hr 6 min 1 sec) 
Heartbeat CPU  1 instructions:   54000000 cycles:   31606585 heartbeat IPC: 0.21756 cumulative IPC: 0.21637 (Simulation time: 0 hr 6 min 2 sec) 
Heartbeat CPU  2 instructions:   54000001 cycles:   34706512 heartbeat IPC: 0.17002 cumulative IPC: 0.16966 (Simulation time: 0 hr 6 min 8 sec) 
Heartbeat CPU  0 instructions:   52000000 cycles:   35479584 heartbeat IPC: 0.20689 cumulative IPC: 0.20965 (Simulation time: 0 hr 6 min 9 sec) 
Heartbeat CPU  3 instructions:   55000001 cycles:   35909327 heartbeat IPC: 0.21254 cumulative IPC: 0.21221 (Simulation time: 0 hr 6 min 10 sec) 
Heartbeat CPU  1 instructions:   55000002 cycles:   36339699 heartbeat IPC: 0.21128 cumulative IPC: 0.21405 (Simulation time: 0 hr 6 min 11 sec) 
Heartbeat CPU  0 instructions:   53000000 cycles:   40213137 heartbeat IPC: 0.21126 cumulative IPC: 0.21018 (Simulation time: 0 hr 6 min 19 sec) 
Heartbeat CPU  2 instructions:   55000002 cycles:   40484436 heartbeat IPC: 0.17307 cumulative IPC: 0.17101 (Simulation time: 0 hr 6 min 19 sec) 
Heartbeat CPU  3 instructions:   56000000 cycles:   40565278 heartbeat IPC: 0.21478 cumulative IPC: 0.21303 (Simulation time: 0 hr 6 min 19 sec) 
Heartbeat CPU  1 instructions:   56000000 cycles:   41027552 heartbeat IPC: 0.21332 cumulative IPC: 0.21382 (Simulation time: 0 hr 6 min 20 sec) 
Heartbeat CPU  0 instructions:   54000002 cycles:   44857614 heartbeat IPC: 0.21531 cumulative IPC: 0.21144 (Simulation time: 0 hr 6 min 27 sec) 
Heartbeat CPU  3 instructions:   57000000 cycles:   45266740 heartbeat IPC: 0.21270 cumulative IPC: 0.21295 (Simulation time: 0 hr 6 min 28 sec) 
Heartbeat CPU  1 instructions:   57000001 cycles:   45718216 heartbeat IPC: 0.21319 cumulative IPC: 0.21367 (Simulation time: 0 hr 6 min 29 sec) 
Heartbeat CPU  2 instructions:   56000000 cycles:   46461146 heartbeat IPC: 0.16732 cumulative IPC: 0.16994 (Simulation time: 0 hr 6 min 30 sec) 
Heartbeat CPU  0 instructions:   55000000 cycles:   49479480 heartbeat IPC: 0.21636 cumulative IPC: 0.21241 (Simulation time: 0 hr 6 min 36 sec) 
Heartbeat CPU  3 instructions:   58000003 cycles:   49991186 heartbeat IPC: 0.21167 cumulative IPC: 0.21270 (Simulation time: 0 hr 6 min 37 sec) 
Heartbeat CPU  1 instructions:   58000000 cycles:   50358706 heartbeat IPC: 0.21549 cumulative IPC: 0.21402 (Simulation time: 0 hr 6 min 38 sec) 
Heartbeat CPU  2 instructions:   57000002 cycles:   52386041 heartbeat IPC: 0.16878 cumulative IPC: 0.16968 (Simulation time: 0 hr 6 min 42 sec) 
Heartbeat CPU  0 instructions:   56000000 cycles:   54130788 heartbeat IPC: 0.21499 cumulative IPC: 0.21283 (Simulation time: 0 hr 6 min 45 sec) 
Heartbeat CPU  3 instructions:   59000001 cycles:   54614038 heartbeat IPC: 0.21632 cumulative IPC: 0.21328 (Simulation time: 0 hr 6 min 46 sec) 
Heartbeat CPU  1 instructions:   59000001 cycles:   55026227 heartbeat IPC: 0.21425 cumulative IPC: 0.21406 (Simulation time: 0 hr 6 min 47 sec) 
Heartbeat CPU  2 instructions:   58000001 cycles:   58313836 heartbeat IPC: 0.16870 cumulative IPC: 0.16950 (Simulation time: 0 hr 6 min 53 sec) 
Heartbeat CPU  0 instructions:   57000000 cycles:   58750428 heartbeat IPC: 0.21647 cumulative IPC: 0.21335 (Simulation time: 0 hr 6 min 54 sec) 
Heartbeat CPU  3 instructions:   60000000 cycles:   59431466 heartbeat IPC: 0.20758 cumulative IPC: 0.21246 (Simulation time: 0 hr 6 min 55 sec) 
Heartbeat CPU  1 instructions:   60000000 cycles:   59597874 heartbeat IPC: 0.21874 cumulative IPC: 0.21469 (Simulation time: 0 hr 6 min 55 sec) 
Heartbeat CPU  0 instructions:   58000002 cycles:   63405198 heartbeat IPC: 0.21483 cumulative IPC: 0.21353 (Simulation time: 0 hr 7 min 2 sec) 
Heartbeat CPU  3 instructions:   61000002 cycles:   64070090 heartbeat IPC: 0.21558 cumulative IPC: 0.21284 (Simulation time: 0 hr 7 min 4 sec) 
Heartbeat CPU  2 instructions:   59000003 cycles:   64223357 heartbeat IPC: 0.16922 cumulative IPC: 0.16945 (Simulation time: 0 hr 7 min 4 sec) 
Heartbeat CPU  1 instructions:   61000000 cycles:   64397627 heartbeat IPC: 0.20834 cumulative IPC: 0.21390 (Simulation time: 0 hr 7 min 4 sec) 
Heartbeat CPU  0 instructions:   59000003 cycles:   68023532 heartbeat IPC: 0.21653 cumulative IPC: 0.21386 (Simulation time: 0 hr 7 min 11 sec) 
Heartbeat CPU  3 instructions:   62000001 cycles:   68671287 heartbeat IPC: 0.21733 cumulative IPC: 0.21332 (Simulation time: 0 hr 7 min 13 sec) 
Heartbeat CPU  1 instructions:   62000000 cycles:   69043972 heartbeat IPC: 0.21522 cumulative IPC: 0.21404 (Simulation time: 0 hr 7 min 13 sec) 
Heartbeat CPU  2 instructions:   60000000 cycles:   70041731 heartbeat IPC: 0.17187 cumulative IPC: 0.16977 (Simulation time: 0 hr 7 min 15 sec) 
Heartbeat CPU  0 instructions:   60000000 cycles:   72649682 heartbeat IPC: 0.21616 cumulative IPC: 0.21409 (Simulation time: 0 hr 7 min 20 sec) 
Heartbeat CPU  3 instructions:   63000001 cycles:   73376336 heartbeat IPC: 0.21254 cumulative IPC: 0.21325 (Simulation time: 0 hr 7 min 22 sec) 
Heartbeat CPU  1 instructions:   63000000 cycles:   73876204 heartbeat IPC: 0.20694 cumulative IPC: 0.21333 (Simulation time: 0 hr 7 min 23 sec) 
Heartbeat CPU  2 instructions:   61000001 cycles:   75812451 heartbeat IPC: 0.17329 cumulative IPC: 0.17018 (Simulation time: 0 hr 7 min 26 sec) 
Heartbeat CPU  0 instructions:   61000000 cycles:   77304684 heartbeat IPC: 0.21482 cumulative IPC: 0.21415 (Simulation time: 0 hr 7 min 30 sec) 
Heartbeat CPU  3 instructions:   64000000 cycles:   78236016 heartbeat IPC: 0.20577 cumulative IPC: 0.21255 (Simulation time: 0 hr 7 min 32 sec) 
Heartbeat CPU  1 instructions:   64000000 cycles:   78251934 heartbeat IPC: 0.22853 cumulative IPC: 0.21460 (Simulation time: 0 hr 7 min 32 sec) 
Heartbeat CPU  2 instructions:   62000002 cycles:   80711035 heartbeat IPC: 0.20414 cumulative IPC: 0.17322 (Simulation time: 0 hr 7 min 36 sec) 
Heartbeat CPU  0 instructions:   62000003 cycles:   82034715 heartbeat IPC: 0.21142 cumulative IPC: 0.21392 (Simulation time: 0 hr 7 min 39 sec) 
Heartbeat CPU  3 instructions:   65000002 cycles:   83078677 heartbeat IPC: 0.20650 cumulative IPC: 0.21204 (Simulation time: 0 hr 7 min 41 sec) 
Heartbeat CPU  1 instructions:   65000000 cycles:   83155644 heartbeat IPC: 0.20393 cumulative IPC: 0.21368 (Simulation time: 0 hr 7 min 41 sec) 
Heartbeat CPU  2 instructions:   63000002 cycles:   86407896 heartbeat IPC: 0.17554 cumulative IPC: 0.17344 (Simulation time: 0 hr 7 min 47 sec) 
Heartbeat CPU  0 instructions:   63000000 cycles:   86773630 heartbeat IPC: 0.21102 cumulative IPC: 0.21370 (Simulation time: 0 hr 7 min 48 sec) 
Heartbeat CPU  3 instructions:   66000001 cycles:   87746557 heartbeat IPC: 0.21423 cumulative IPC: 0.21220 (Simulation time: 0 hr 7 min 50 sec) 
Heartbeat CPU  1 instructions:   66000001 cycles:   87939266 heartbeat IPC: 0.20905 cumulative IPC: 0.21333 (Simulation time: 0 hr 7 min 50 sec) 
Heartbeat CPU  0 instructions:   64000000 cycles:   91752707 heartbeat IPC: 0.20084 cumulative IPC: 0.21272 (Simulation time: 0 hr 7 min 57 sec) 
Heartbeat CPU  2 instructions:   64000000 cycles:   92041293 heartbeat IPC: 0.17751 cumulative IPC: 0.17378 (Simulation time: 0 hr 7 min 58 sec) 
Heartbeat CPU  3 instructions:   67000001 cycles:   92328868 heartbeat IPC: 0.21823 cumulative IPC: 0.21262 (Simulation time: 0 hr 7 min 58 sec) 
Heartbeat CPU  1 instructions:   67000003 cycles:   92549255 heartbeat IPC: 0.21692 cumulative IPC: 0.21358 (Simulation time: 0 hr 7 min 59 sec) 
Heartbeat CPU  0 instructions:   65000001 cycles:   96048409 heartbeat IPC: 0.23279 cumulative IPC: 0.21395 (Simulation time: 0 hr 8 min 6 sec) 
Heartbeat CPU  2 instructions:   65000000 cycles:   96375069 heartbeat IPC: 0.23075 cumulative IPC: 0.17729 (Simulation time: 0 hr 8 min 7 sec) 
Heartbeat CPU  1 instructions:   68000000 cycles:   97007054 heartbeat IPC: 0.22433 cumulative IPC: 0.21425 (Simulation time: 0 hr 8 min 8 sec) 
Heartbeat CPU  3 instructions:   68000000 cycles:   97027500 heartbeat IPC: 0.21283 cumulative IPC: 0.21263 (Simulation time: 0 hr 8 min 8 sec) 
Heartbeat CPU  0 instructions:   66000000 cycles:   99089896 heartbeat IPC: 0.32879 cumulative IPC: 0.21873 (Simulation time: 0 hr 8 min 12 sec) 
Heartbeat CPU  0 instructions:   67000002 cycles:   99643192 heartbeat IPC: 1.80735 cumulative IPC: 0.23065 (Simulation time: 0 hr 8 min 15 sec) 
Heartbeat CPU  2 instructions:   66000003 cycles:  100728704 heartbeat IPC: 0.22969 cumulative IPC: 0.18034 (Simulation time: 0 hr 8 min 17 sec) 
Heartbeat CPU  1 instructions:   69000000 cycles:  101472530 heartbeat IPC: 0.22394 cumulative IPC: 0.21482 (Simulation time: 0 hr 8 min 19 sec) 
Heartbeat CPU  3 instructions:   69000000 cycles:  101607491 heartbeat IPC: 0.21834 cumulative IPC: 0.21298 (Simulation time: 0 hr 8 min 19 sec) 
Heartbeat CPU  2 instructions:   67000003 cycles:  102130393 heartbeat IPC: 0.71343 cumulative IPC: 0.19015 (Simulation time: 0 hr 8 min 21 sec) 
Heartbeat CPU  0 instructions:   68000000 cycles:  102988355 heartbeat IPC: 0.29894 cumulative IPC: 0.23362 (Simulation time: 0 hr 8 min 23 sec) 
Heartbeat CPU  1 instructions:   70000001 cycles:  106133609 heartbeat IPC: 0.21454 cumulative IPC: 0.21481 (Simulation time: 0 hr 8 min 29 sec) 
Heartbeat CPU  3 instructions:   70000000 cycles:  106288341 heartbeat IPC: 0.21364 cumulative IPC: 0.21302 (Simulation time: 0 hr 8 min 29 sec) 
Heartbeat CPU  2 instructions:   68000000 cycles:  106672320 heartbeat IPC: 0.22017 cumulative IPC: 0.19184 (Simulation time: 0 hr 8 min 30 sec) 
Heartbeat CPU  0 instructions:   69000000 cycles:  107592451 heartbeat IPC: 0.21720 cumulative IPC: 0.23269 (Simulation time: 0 hr 8 min 31 sec) 
Heartbeat CPU  1 instructions:   71000002 cycles:  110800769 heartbeat IPC: 0.21426 cumulative IPC: 0.21478 (Simulation time: 0 hr 8 min 37 sec) 
Heartbeat CPU  3 instructions:   71000000 cycles:  110980538 heartbeat IPC: 0.21312 cumulative IPC: 0.21302 (Simulation time: 0 hr 8 min 38 sec) 
Heartbeat CPU  0 instructions:   70000002 cycles:  112197473 heartbeat IPC: 0.21715 cumulative IPC: 0.23186 (Simulation time: 0 hr 8 min 40 sec) 
Heartbeat CPU  2 instructions:   69000002 cycles:  112408172 heartbeat IPC: 0.17434 cumulative IPC: 0.19067 (Simulation time: 0 hr 8 min 41 sec) 
Heartbeat CPU  1 instructions:   72000000 cycles:  115499491 heartbeat IPC: 0.21282 cumulative IPC: 0.21467 (Simulation time: 0 hr 8 min 46 sec) 
Heartbeat CPU  3 instructions:   72000000 cycles:  115641833 heartbeat IPC: 0.21453 cumulative IPC: 0.21310 (Simulation time: 0 hr 8 min 47 sec) 
Heartbeat CPU  0 instructions:   71000002 cycles:  116943471 heartbeat IPC: 0.21070 cumulative IPC: 0.23076 (Simulation time: 0 hr 8 min 49 sec) 
Heartbeat CPU  2 instructions:   70000002 cycles:  118232515 heartbeat IPC: 0.17169 cumulative IPC: 0.18948 (Simulation time: 0 hr 8 min 52 sec) 
Heartbeat CPU  1 instructions:   73000000 cycles:  120216965 heartbeat IPC: 0.21198 cumulative IPC: 0.21454 (Simulation time: 0 hr 8 min 55 sec) 
Heartbeat CPU  3 instructions:   73000002 cycles:  120267143 heartbeat IPC: 0.21620 cumulative IPC: 0.21325 (Simulation time: 0 hr 8 min 55 sec) 
Heartbeat CPU  0 instructions:   72000000 cycles:  121643131 heartbeat IPC: 0.21278 cumulative IPC: 0.22988 (Simulation time: 0 hr 8 min 58 sec) 
Heartbeat CPU  2 instructions:   71000000 cycles:  124119720 heartbeat IPC: 0.16986 cumulative IPC: 0.18830 (Simulation time: 0 hr 9 min 3 sec) 
Heartbeat CPU  1 instructions:   74000000 cycles:  124834742 heartbeat IPC: 0.21655 cumulative IPC: 0.21463 (Simulation time: 0 hr 9 min 4 sec) 
Heartbeat CPU  3 instructions:   74000000 cycles:  124965403 heartbeat IPC: 0.21284 cumulative IPC: 0.21323 (Simulation time: 0 hr 9 min 4 sec) 
Heartbeat CPU  0 instructions:   73000000 cycles:  126337646 heartbeat IPC: 0.21301 cumulative IPC: 0.22909 (Simulation time: 0 hr 9 min 7 sec) 
Heartbeat CPU  3 instructions:   75000003 cycles:  129470161 heartbeat IPC: 0.22199 cumulative IPC: 0.21362 (Simulation time: 0 hr 9 min 13 sec) 
Heartbeat CPU  1 instructions:   75000000 cycles:  129492255 heartbeat IPC: 0.21471 cumulative IPC: 0.21464 (Simulation time: 0 hr 9 min 13 sec) 
Heartbeat CPU  2 instructions:   72000000 cycles:  129930829 heartbeat IPC: 0.17208 cumulative IPC: 0.18739 (Simulation time: 0 hr 9 min 14 sec) 
Heartbeat CPU  0 instructions:   74000002 cycles:  131077392 heartbeat IPC: 0.21098 cumulative IPC: 0.22827 (Simulation time: 0 hr 9 min 16 sec) 
Heartbeat CPU  1 instructions:   76000000 cycles:  134095241 heartbeat IPC: 0.21725 cumulative IPC: 0.21475 (Simulation time: 0 hr 9 min 22 sec) 
Heartbeat CPU  3 instructions:   76000000 cycles:  134133919 heartbeat IPC: 0.21442 cumulative IPC: 0.21365 (Simulation time: 0 hr 9 min 22 sec) 
Heartbeat CPU  0 instructions:   75000002 cycles:  135731896 heartbeat IPC: 0.21485 cumulative IPC: 0.22770 (Simulation time: 0 hr 9 min 25 sec) 
Heartbeat CPU  2 instructions:   73000002 cycles:  135796662 heartbeat IPC: 0.17048 cumulative IPC: 0.18649 (Simulation time: 0 hr 9 min 25 sec) 
Heartbeat CPU  1 instructions:   77000002 cycles:  138728899 heartbeat IPC: 0.21581 cumulative IPC: 0.21479 (Simulation time: 0 hr 9 min 31 sec) 
Heartbeat CPU  3 instructions:   77000001 cycles:  138768135 heartbeat IPC: 0.21579 cumulative IPC: 0.21374 (Simulation time: 0 hr 9 min 31 sec) 
Heartbeat CPU  0 instructions:   76000000 cycles:  140339223 heartbeat IPC: 0.21705 cumulative IPC: 0.22727 (Simulation time: 0 hr 9 min 34 sec) 
Heartbeat CPU  2 instructions:   74000002 cycles:  141716321 heartbeat IPC: 0.16893 cumulative IPC: 0.18559 (Simulation time: 0 hr 9 min 37 sec) 
Heartbeat CPU  3 instructions:   78000002 cycles:  143265916 heartbeat IPC: 0.22233 cumulative IPC: 0.21407 (Simulation time: 0 hr 9 min 40 sec) 
Heartbeat CPU  1 instructions:   78000000 cycles:  143363369 heartbeat IPC: 0.21577 cumulative IPC: 0.21483 (Simulation time: 0 hr 9 min 40 sec) 
Heartbeat CPU  0 instructions:   77000001 cycles:  144990744 heartbeat IPC: 0.21498 cumulative IPC: 0.22679 (Simulation time: 0 hr 9 min 43 sec) 
Heartbeat CPU  2 instructions:   75000003 cycles:  147638177 heartbeat IPC: 0.16887 cumulative IPC: 0.18478 (Simulation time: 0 hr 9 min 48 sec) 
Heartbeat CPU  3 instructions:   79000001 cycles:  147888074 heartbeat IPC: 0.21635 cumulative IPC: 0.21415 (Simulation time: 0 hr 9 min 48 sec) 
Heartbeat CPU  1 instructions:   79000003 cycles:  148057822 heartbeat IPC: 0.21302 cumulative IPC: 0.21476 (Simulation time: 0 hr 9 min 49 sec) 
Heartbeat CPU  0 instructions:   78000000 cycles:  149644247 heartbeat IPC: 0.21489 cumulative IPC: 0.22635 (Simulation time: 0 hr 9 min 52 sec) 
Heartbeat CPU  3 instructions:   80000000 cycles:  152571136 heartbeat IPC: 0.21354 cumulative IPC: 0.21413 (Simulation time: 0 hr 9 min 57 sec) 
Heartbeat CPU  1 instructions:   80000000 cycles:  152885299 heartbeat IPC: 0.20715 cumulative IPC: 0.21447 (Simulation time: 0 hr 9 min 58 sec) 
Heartbeat CPU  2 instructions:   76000000 cycles:  153484132 heartbeat IPC: 0.17106 cumulative IPC: 0.18415 (Simulation time: 0 hr 9 min 59 sec) 
Heartbeat CPU  0 instructions:   79000002 cycles:  154295046 heartbeat IPC: 0.21502 cumulative IPC: 0.22594 (Simulation time: 0 hr 10 min 1 sec) 
Heartbeat CPU  3 instructions:   81000000 cycles:  157322527 heartbeat IPC: 0.21046 cumulative IPC: 0.21400 (Simulation time: 0 hr 10 min 6 sec) 
Heartbeat CPU  1 instructions:   81000000 cycles:  157666518 heartbeat IPC: 0.20915 cumulative IPC: 0.21428 (Simulation time: 0 hr 10 min 7 sec) 
Heartbeat CPU  0 instructions:   80000000 cycles:  158971790 heartbeat IPC: 0.21382 cumulative IPC: 0.22551 (Simulation time: 0 hr 10 min 10 sec) 
Heartbeat CPU  2 instructions:   77000002 cycles:  159366420 heartbeat IPC: 0.17000 cumulative IPC: 0.18353 (Simulation time: 0 hr 10 min 10 sec) 
Heartbeat CPU  3 instructions:   82000000 cycles:  162246063 heartbeat IPC: 0.20311 cumulative IPC: 0.21360 (Simulation time: 0 hr 10 min 16 sec) 
Heartbeat CPU  1 instructions:   82000003 cycles:  162313659 heartbeat IPC: 0.21519 cumulative IPC: 0.21431 (Simulation time: 0 hr 10 min 16 sec) 
Heartbeat CPU  0 instructions:   81000002 cycles:  163601734 heartbeat IPC: 0.21599 cumulative IPC: 0.22519 (Simulation time: 0 hr 10 min 19 sec) 
Heartbeat CPU  2 instructions:   78000000 cycles:  165227971 heartbeat IPC: 0.17060 cumulative IPC: 0.18298 (Simulation time: 0 hr 10 min 22 sec) 
Heartbeat CPU  3 instructions:   83000000 cycles:  167152307 heartbeat IPC: 0.20382 cumulative IPC: 0.21326 (Simulation time: 0 hr 10 min 25 sec) 
Heartbeat CPU  1 instructions:   83000000 cycles:  167360939 heartbeat IPC: 0.19813 cumulative IPC: 0.21373 (Simulation time: 0 hr 10 min 26 sec) 
Heartbeat CPU  0 instructions:   82000003 cycles:  168109018 heartbeat IPC: 0.22186 cumulative IPC: 0.22508 (Simulation time: 0 hr 10 min 27 sec) 
Heartbeat CPU  2 instructions:   79000000 cycles:  171092321 heartbeat IPC: 0.17052 cumulative IPC: 0.18248 (Simulation time: 0 hr 10 min 33 sec) 
Heartbeat CPU  3 instructions:   84000000 cycles:  171805693 heartbeat IPC: 0.21490 cumulative IPC: 0.21332 (Simulation time: 0 hr 10 min 34 sec) 
Heartbeat CPU  1 instructions:   84000000 cycles:  172230756 heartbeat IPC: 0.20535 cumulative IPC: 0.21345 (Simulation time: 0 hr 10 min 35 sec) 
Heartbeat CPU  0 instructions:   83000002 cycles:  172758579 heartbeat IPC: 0.21507 cumulative IPC: 0.22477 (Simulation time: 0 hr 10 min 36 sec) 
Heartbeat CPU  3 instructions:   85000002 cycles:  176464498 heartbeat IPC: 0.21465 cumulative IPC: 0.21336 (Simulation time: 0 hr 10 min 43 sec) 
Heartbeat CPU  2 instructions:   80000000 cycles:  176770893 heartbeat IPC: 0.17610 cumulative IPC: 0.18224 (Simulation time: 0 hr 10 min 44 sec) 
Heartbeat CPU  1 instructions:   85000003 cycles:  176822333 heartbeat IPC: 0.21779 cumulative IPC: 0.21358 (Simulation time: 0 hr 10 min 44 sec) 
Heartbeat CPU  0 instructions:   84000000 cycles:  177335431 heartbeat IPC: 0.21849 cumulative IPC: 0.22458 (Simulation time: 0 hr 10 min 45 sec) 
Heartbeat CPU  3 instructions:   86000000 cycles:  180948224 heartbeat IPC: 0.22303 cumulative IPC: 0.21364 (Simulation time: 0 hr 10 min 52 sec) 
Heartbeat CPU  1 instructions:   86000002 cycles:  181267670 heartbeat IPC: 0.22495 cumulative IPC: 0.21391 (Simulation time: 0 hr 10 min 52 sec) 
Heartbeat CPU  0 instructions:   85000000 cycles:  181983867 heartbeat IPC: 0.21513 cumulative IPC: 0.22430 (Simulation time: 0 hr 10 min 54 sec) 
Heartbeat CPU  2 instructions:   81000001 cycles:  182587705 heartbeat IPC: 0.17192 cumulative IPC: 0.18186 (Simulation time: 0 hr 10 min 55 sec) 
Heartbeat CPU  3 instructions:   87000001 cycles:  185649464 heartbeat IPC: 0.21271 cumulative IPC: 0.21361 (Simulation time: 0 hr 11 min 1 sec) 
Heartbeat CPU  1 instructions:   87000001 cycles:  185922790 heartbeat IPC: 0.21482 cumulative IPC: 0.21394 (Simulation time: 0 hr 11 min 2 sec) 
Heartbeat CPU  0 instructions:   86000002 cycles:  187462594 heartbeat IPC: 0.18252 cumulative IPC: 0.22288 (Simulation time: 0 hr 11 min 4 sec) 
Heartbeat CPU  2 instructions:   82000001 cycles:  188095423 heartbeat IPC: 0.18156 cumulative IPC: 0.18185 (Simulation time: 0 hr 11 min 6 sec) 
Heartbeat CPU  3 instructions:   88000000 cycles:  190393666 heartbeat IPC: 0.21078 cumulative IPC: 0.21353 (Simulation time: 0 hr 11 min 10 sec) 
Heartbeat CPU  1 instructions:   88000000 cycles:  190501270 heartbeat IPC: 0.21841 cumulative IPC: 0.21406 (Simulation time: 0 hr 11 min 10 sec) 
Heartbeat CPU  2 instructions:   83000001 cycles:  193759296 heartbeat IPC: 0.17656 cumulative IPC: 0.18167 (Simulation time: 0 hr 11 min 16 sec) 
Heartbeat CPU  3 instructions:   89000003 cycles:  194889050 heartbeat IPC: 0.22245 cumulative IPC: 0.21377 (Simulation time: 0 hr 11 min 18 sec) 
Heartbeat CPU  1 instructions:   89000002 cycles:  195094988 heartbeat IPC: 0.21769 cumulative IPC: 0.21416 (Simulation time: 0 hr 11 min 18 sec) 
Heartbeat CPU  0 instructions:   87000000 cycles:  195839615 heartbeat IPC: 0.11937 cumulative IPC: 0.21778 (Simulation time: 0 hr 11 min 19 sec) 
Heartbeat CPU  2 instructions:   84000000 cycles:  199158107 heartbeat IPC: 0.18523 cumulative IPC: 0.18178 (Simulation time: 0 hr 11 min 26 sec) 
Heartbeat CPU  3 instructions:   90000001 cycles:  199492249 heartbeat IPC: 0.21724 cumulative IPC: 0.21386 (Simulation time: 0 hr 11 min 26 sec) 
Heartbeat CPU  1 instructions:   90000002 cycles:  199830209 heartbeat IPC: 0.21118 cumulative IPC: 0.21408 (Simulation time: 0 hr 11 min 27 sec) 
Heartbeat CPU  0 instructions:   88000000 cycles:  203099436 heartbeat IPC: 0.13774 cumulative IPC: 0.21450 (Simulation time: 0 hr 11 min 33 sec) 
Heartbeat CPU  3 instructions:   91000002 cycles:  204263149 heartbeat IPC: 0.20960 cumulative IPC: 0.21374 (Simulation time: 0 hr 11 min 35 sec) 
Heartbeat CPU  1 instructions:   91000003 cycles:  204503613 heartbeat IPC: 0.21398 cumulative IPC: 0.21408 (Simulation time: 0 hr 11 min 35 sec) 
Heartbeat CPU  2 instructions:   85000001 cycles:  205375912 heartbeat IPC: 0.16083 cumulative IPC: 0.18105 (Simulation time: 0 hr 11 min 37 sec) 
Heartbeat CPU  3 instructions:   92000000 cycles:  208990320 heartbeat IPC: 0.21154 cumulative IPC: 0.21369 (Simulation time: 0 hr 11 min 43 sec) 
Heartbeat CPU  1 instructions:   92000000 cycles:  209163138 heartbeat IPC: 0.21461 cumulative IPC: 0.21409 (Simulation time: 0 hr 11 min 43 sec) 
Heartbeat CPU  2 instructions:   86000003 cycles:  211279545 heartbeat IPC: 0.16939 cumulative IPC: 0.18068 (Simulation time: 0 hr 11 min 47 sec) 
Heartbeat CPU  0 instructions:   89000000 cycles:  211429326 heartbeat IPC: 0.12005 cumulative IPC: 0.21025 (Simulation time: 0 hr 11 min 47 sec) 
Heartbeat CPU  3 instructions:   93000002 cycles:  213660235 heartbeat IPC: 0.21414 cumulative IPC: 0.21370 (Simulation time: 0 hr 11 min 51 sec) 
Heartbeat CPU  1 instructions:   93000002 cycles:  213779647 heartbeat IPC: 0.21661 cumulative IPC: 0.21415 (Simulation time: 0 hr 11 min 51 sec) 
Heartbeat CPU  2 instructions:   87000000 cycles:  217310634 heartbeat IPC: 0.16581 cumulative IPC: 0.18021 (Simulation time: 0 hr 11 min 57 sec) 
Heartbeat CPU  1 instructions:   94000002 cycles:  218386950 heartbeat IPC: 0.21705 cumulative IPC: 0.21422 (Simulation time: 0 hr 11 min 59 sec) 
Heartbeat CPU  3 instructions:   94000002 cycles:  218402980 heartbeat IPC: 0.21085 cumulative IPC: 0.21363 (Simulation time: 0 hr 11 min 59 sec) 
Heartbeat CPU  0 instructions:   90000000 cycles:  219800797 heartbeat IPC: 0.11945 cumulative IPC: 0.20633 (Simulation time: 0 hr 12 min 2 sec) 
Heartbeat CPU  2 instructions:   88000000 cycles:  222953912 heartbeat IPC: 0.17720 cumulative IPC: 0.18013 (Simulation time: 0 hr 12 min 8 sec) 
Heartbeat CPU  3 instructions:   95000000 cycles:  222972831 heartbeat IPC: 0.21883 cumulative IPC: 0.21375 (Simulation time: 0 hr 12 min 8 sec) 
Heartbeat CPU  1 instructions:   95000000 cycles:  222976354 heartbeat IPC: 0.21789 cumulative IPC: 0.21431 (Simulation time: 0 hr 12 min 8 sec) 
Heartbeat CPU  0 instructions:   91000001 cycles:  224845949 heartbeat IPC: 0.19821 cumulative IPC: 0.20613 (Simulation time: 0 hr 12 min 12 sec) 
Heartbeat CPU  3 instructions:   96000000 cycles:  227472074 heartbeat IPC: 0.22226 cumulative IPC: 0.21394 (Simulation time: 0 hr 12 min 17 sec) 
Heartbeat CPU  1 instructions:   96000000 cycles:  227535466 heartbeat IPC: 0.21934 cumulative IPC: 0.21442 (Simulation time: 0 hr 12 min 17 sec) 
Heartbeat CPU  2 instructions:   89000003 cycles:  228492389 heartbeat IPC: 0.18056 cumulative IPC: 0.18014 (Simulation time: 0 hr 12 min 19 sec) 
Heartbeat CPU  0 instructions:   92000000 cycles:  229581283 heartbeat IPC: 0.21118 cumulative IPC: 0.20624 (Simulation time: 0 hr 12 min 21 sec) 
Heartbeat CPU  3 instructions:   97000002 cycles:  232093264 heartbeat IPC: 0.21639 cumulative IPC: 0.21399 (Simulation time: 0 hr 12 min 26 sec) 
Heartbeat CPU  1 instructions:   97000001 cycles:  232153954 heartbeat IPC: 0.21652 cumulative IPC: 0.21447 (Simulation time: 0 hr 12 min 26 sec) 
Heartbeat CPU  2 instructions:   90000002 cycles:  234018458 heartbeat IPC: 0.18096 cumulative IPC: 0.18016 (Simulation time: 0 hr 12 min 30 sec) 
Heartbeat CPU  0 instructions:   93000003 cycles:  234280074 heartbeat IPC: 0.21282 cumulative IPC: 0.20639 (Simulation time: 0 hr 12 min 30 sec) 
Heartbeat CPU  1 instructions:   98000000 cycles:  236726040 heartbeat IPC: 0.21872 cumulative IPC: 0.21456 (Simulation time: 0 hr 12 min 35 sec) 
Heartbeat CPU  3 instructions:   98000000 cycles:  236772385 heartbeat IPC: 0.21371 cumulative IPC: 0.21399 (Simulation time: 0 hr 12 min 35 sec) 
Heartbeat CPU  0 instructions:   94000000 cycles:  238901059 heartbeat IPC: 0.21640 cumulative IPC: 0.20661 (Simulation time: 0 hr 12 min 39 sec) 
Heartbeat CPU  2 instructions:   91000001 cycles:  240005023 heartbeat IPC: 0.16704 cumulative IPC: 0.17979 (Simulation time: 0 hr 12 min 41 sec) 
Heartbeat CPU  1 instructions:   99000000 cycles:  241254645 heartbeat IPC: 0.22082 cumulative IPC: 0.21469 (Simulation time: 0 hr 12 min 44 sec) 
Heartbeat CPU  3 instructions:   99000001 cycles:  241366735 heartbeat IPC: 0.21766 cumulative IPC: 0.21407 (Simulation time: 0 hr 12 min 44 sec) 
Heartbeat CPU  0 instructions:   95000003 cycles:  243364362 heartbeat IPC: 0.22405 cumulative IPC: 0.20697 (Simulation time: 0 hr 12 min 48 sec) 
*** Reached end of trace for Core: 1 Repeating trace: /data3/STREAMING/traces/streaming_phase5_core1.trace.xz
*** Reached end of trace for Core: 3 Repeating trace: /data3/STREAMING/traces/streaming_phase5_core3.trace.xz
Heartbeat CPU  3 instructions:  100000000 cycles:  245853589 heartbeat IPC: 0.22287 cumulative IPC: 0.21425 (Simulation time: 0 hr 12 min 53 sec) 
Heartbeat CPU  1 instructions:  100000000 cycles:  245885065 heartbeat IPC: 0.21596 cumulative IPC: 0.21472 (Simulation time: 0 hr 12 min 53 sec) 
Heartbeat CPU  2 instructions:   92000000 cycles:  245915215 heartbeat IPC: 0.16920 cumulative IPC: 0.17951 (Simulation time: 0 hr 12 min 53 sec) 
Heartbeat CPU  0 instructions:   96000000 cycles:  247826820 heartbeat IPC: 0.22409 cumulative IPC: 0.20731 (Simulation time: 0 hr 12 min 57 sec) 
Heartbeat CPU  3 instructions:  101000002 cycles:  250417899 heartbeat IPC: 0.21909 cumulative IPC: 0.21434 (Simulation time: 0 hr 13 min 2 sec) 
Heartbeat CPU  1 instructions:  101000000 cycles:  250503440 heartbeat IPC: 0.21653 cumulative IPC: 0.21475 (Simulation time: 0 hr 13 min 2 sec) 
Heartbeat CPU  2 instructions:   93000002 cycles:  251327226 heartbeat IPC: 0.18477 cumulative IPC: 0.17963 (Simulation time: 0 hr 13 min 4 sec) 
Heartbeat CPU  0 instructions:   97000002 cycles:  252334112 heartbeat IPC: 0.22186 cumulative IPC: 0.20760 (Simulation time: 0 hr 13 min 6 sec) 
Heartbeat CPU  2 instructions:   94000000 cycles:  253397326 heartbeat IPC: 0.48307 cumulative IPC: 0.18240 (Simulation time: 0 hr 13 min 8 sec) 
Heartbeat CPU  1 instructions:  102000000 cycles:  255007250 heartbeat IPC: 0.22203 cumulative IPC: 0.21490 (Simulation time: 0 hr 13 min 12 sec) 
Heartbeat CPU  3 instructions:  102000003 cycles:  255051472 heartbeat IPC: 0.21582 cumulative IPC: 0.21437 (Simulation time: 0 hr 13 min 12 sec) 
Heartbeat CPU  2 instructions:   95000002 cycles:  255278098 heartbeat IPC: 0.53170 cumulative IPC: 0.18526 (Simulation time: 0 hr 13 min 13 sec) 
Heartbeat CPU  0 instructions:   98000001 cycles:  256725277 heartbeat IPC: 0.22773 cumulative IPC: 0.20799 (Simulation time: 0 hr 13 min 16 sec) 
Heartbeat CPU  2 instructions:   96000000 cycles:  257175573 heartbeat IPC: 0.52702 cumulative IPC: 0.18806 (Simulation time: 0 hr 13 min 17 sec) 
Heartbeat CPU  2 instructions:   97000002 cycles:  259098706 heartbeat IPC: 0.51999 cumulative IPC: 0.19080 (Simulation time: 0 hr 13 min 22 sec) 
Heartbeat CPU  1 instructions:  103000000 cycles:  259491459 heartbeat IPC: 0.22300 cumulative IPC: 0.21505 (Simulation time: 0 hr 13 min 23 sec) 
Heartbeat CPU  3 instructions:  103000003 cycles:  259797668 heartbeat IPC: 0.21070 cumulative IPC: 0.21430 (Simulation time: 0 hr 13 min 24 sec) 
Heartbeat CPU  2 instructions:   98000003 cycles:  261020452 heartbeat IPC: 0.52036 cumulative IPC: 0.19350 (Simulation time: 0 hr 13 min 27 sec) 
Heartbeat CPU  0 instructions:   99000002 cycles:  261145812 heartbeat IPC: 0.22622 cumulative IPC: 0.20833 (Simulation time: 0 hr 13 min 27 sec) 
Heartbeat CPU  2 instructions:   99000000 cycles:  262902709 heartbeat IPC: 0.53128 cumulative IPC: 0.19618 (Simulation time: 0 hr 13 min 31 sec) 
Heartbeat CPU  1 instructions:  104000000 cycles:  264238764 heartbeat IPC: 0.21065 cumulative IPC: 0.21497 (Simulation time: 0 hr 13 min 34 sec) 
Heartbeat CPU  3 instructions:  104000000 cycles:  264556050 heartbeat IPC: 0.21015 cumulative IPC: 0.21422 (Simulation time: 0 hr 13 min 35 sec) 
*** Reached end of trace for Core: 2 Repeating trace: /data3/STREAMING/traces/streaming_phase5_core2.trace.xz
Heartbeat CPU  2 instructions:  100000000 cycles:  265245432 heartbeat IPC: 0.42685 cumulative IPC: 0.19844 (Simulation time: 0 hr 13 min 36 sec) 
*** Reached end of trace for Core: 0 Repeating trace: /data3/STREAMING/traces/streaming_phase5_core0.trace.xz
Heartbeat CPU  0 instructions:  100000000 cycles:  265511448 heartbeat IPC: 0.22906 cumulative IPC: 0.20871 (Simulation time: 0 hr 13 min 37 sec) 
Heartbeat CPU  2 instructions:  101000001 cycles:  267565738 heartbeat IPC: 0.43098 cumulative IPC: 0.20067 (Simulation time: 0 hr 13 min 42 sec) 
Heartbeat CPU  0 instructions:  101000002 cycles:  268661319 heartbeat IPC: 0.31747 cumulative IPC: 0.21012 (Simulation time: 0 hr 13 min 45 sec) 
Heartbeat CPU  1 instructions:  105000001 cycles:  268836107 heartbeat IPC: 0.21752 cumulative IPC: 0.21501 (Simulation time: 0 hr 13 min 45 sec) 
Heartbeat CPU  3 instructions:  105000000 cycles:  269286871 heartbeat IPC: 0.21138 cumulative IPC: 0.21416 (Simulation time: 0 hr 13 min 46 sec) 
Heartbeat CPU  2 instructions:  102000002 cycles:  269363699 heartbeat IPC: 0.55619 cumulative IPC: 0.20330 (Simulation time: 0 hr 13 min 47 sec) 
Heartbeat CPU  2 instructions:  103000001 cycles:  271061886 heartbeat IPC: 0.58886 cumulative IPC: 0.20597 (Simulation time: 0 hr 13 min 51 sec) 
Heartbeat CPU  0 instructions:  102000000 cycles:  273178563 heartbeat IPC: 0.22137 cumulative IPC: 0.21032 (Simulation time: 0 hr 13 min 55 sec) 
Heartbeat CPU  1 instructions:  106000002 cycles:  273337864 heartbeat IPC: 0.22214 cumulative IPC: 0.21514 (Simulation time: 0 hr 13 min 56 sec) 
Heartbeat CPU  2 instructions:  104000000 cycles:  273961522 heartbeat IPC: 0.34487 cumulative IPC: 0.20759 (Simulation time: 0 hr 13 min 57 sec) 
Heartbeat CPU  3 instructions:  106000002 cycles:  273967500 heartbeat IPC: 0.21365 cumulative IPC: 0.21415 (Simulation time: 0 hr 13 min 57 sec) 
Heartbeat CPU  2 instructions:  105000002 cycles:  276003132 heartbeat IPC: 0.48981 cumulative IPC: 0.20990 (Simulation time: 0 hr 14 min 2 sec) 
Heartbeat CPU  0 instructions:  103000003 cycles:  276393355 heartbeat IPC: 0.31106 cumulative IPC: 0.21162 (Simulation time: 0 hr 14 min 3 sec) 
Heartbeat CPU  2 instructions:  106000002 cycles:  277880593 heartbeat IPC: 0.53263 cumulative IPC: 0.21230 (Simulation time: 0 hr 14 min 7 sec) 
Heartbeat CPU  1 instructions:  107000000 cycles:  277923845 heartbeat IPC: 0.21806 cumulative IPC: 0.21520 (Simulation time: 0 hr 14 min 7 sec) 
Heartbeat CPU  3 instructions:  107000002 cycles:  278637795 heartbeat IPC: 0.21412 cumulative IPC: 0.21415 (Simulation time: 0 hr 14 min 9 sec) 
Heartbeat CPU  2 instructions:  107000001 cycles:  279401892 heartbeat IPC: 0.65733 cumulative IPC: 0.21497 (Simulation time: 0 hr 14 min 11 sec) 
Heartbeat CPU  0 instructions:  104000000 cycles:  279773459 heartbeat IPC: 0.29585 cumulative IPC: 0.21274 (Simulation time: 0 hr 14 min 12 sec) 
Heartbeat CPU  2 instructions:  108000000 cycles:  281492287 heartbeat IPC: 0.47838 cumulative IPC: 0.21713 (Simulation time: 0 hr 14 min 16 sec) 
Heartbeat CPU  1 instructions:  108000000 cycles:  282479034 heartbeat IPC: 0.21953 cumulative IPC: 0.21527 (Simulation time: 0 hr 14 min 18 sec) 
Heartbeat CPU  3 instructions:  108000000 cycles:  283275704 heartbeat IPC: 0.21561 cumulative IPC: 0.21418 (Simulation time: 0 hr 14 min 19 sec) 
Heartbeat CPU  0 instructions:  105000003 cycles:  284469197 heartbeat IPC: 0.21296 cumulative IPC: 0.21274 (Simulation time: 0 hr 14 min 21 sec) 
Heartbeat CPU  2 instructions:  109000000 cycles:  287219953 heartbeat IPC: 0.17459 cumulative IPC: 0.21619 (Simulation time: 0 hr 14 min 27 sec) 
Heartbeat CPU  1 instructions:  109000000 cycles:  287235348 heartbeat IPC: 0.21025 cumulative IPC: 0.21518 (Simulation time: 0 hr 14 min 27 sec) 
Heartbeat CPU  3 instructions:  109000000 cycles:  287939949 heartbeat IPC: 0.21440 cumulative IPC: 0.21418 (Simulation time: 0 hr 14 min 28 sec) 
Heartbeat CPU  0 instructions:  106000002 cycles:  289106111 heartbeat IPC: 0.21566 cumulative IPC: 0.21279 (Simulation time: 0 hr 14 min 30 sec) 
Heartbeat CPU  0 instructions:  107000002 cycles:  290862991 heartbeat IPC: 0.56919 cumulative IPC: 0.21516 (Simulation time: 0 hr 14 min 35 sec) 
Heartbeat CPU  1 instructions:  110000000 cycles:  291690807 heartbeat IPC: 0.22444 cumulative IPC: 0.21534 (Simulation time: 0 hr 14 min 37 sec) 
Heartbeat CPU  0 instructions:  108000000 cycles:  292132860 heartbeat IPC: 0.78748 cumulative IPC: 0.21789 (Simulation time: 0 hr 14 min 38 sec) 
Heartbeat CPU  3 instructions:  110000001 cycles:  292455506 heartbeat IPC: 0.22146 cumulative IPC: 0.21431 (Simulation time: 0 hr 14 min 39 sec) 
Heartbeat CPU  2 instructions:  110000002 cycles:  293043770 heartbeat IPC: 0.17171 cumulative IPC: 0.21522 (Simulation time: 0 hr 14 min 40 sec) 
Heartbeat CPU  1 instructions:  111000002 cycles:  296226089 heartbeat IPC: 0.22049 cumulative IPC: 0.21542 (Simulation time: 0 hr 14 min 46 sec) 
Heartbeat CPU  0 instructions:  109000003 cycles:  296693929 heartbeat IPC: 0.21925 cumulative IPC: 0.21791 (Simulation time: 0 hr 14 min 47 sec) 
Heartbeat CPU  3 instructions:  111000000 cycles:  296976848 heartbeat IPC: 0.22117 cumulative IPC: 0.21442 (Simulation time: 0 hr 14 min 48 sec) 
Heartbeat CPU  2 instructions:  111000002 cycles:  298856871 heartbeat IPC: 0.17203 cumulative IPC: 0.21430 (Simulation time: 0 hr 14 min 51 sec) 
Heartbeat CPU  1 instructions:  112000000 cycles:  300861731 heartbeat IPC: 0.21572 cumulative IPC: 0.21543 (Simulation time: 0 hr 14 min 55 sec) 
Heartbeat CPU  0 instructions:  110000003 cycles:  301153242 heartbeat IPC: 0.22425 cumulative IPC: 0.21801 (Simulation time: 0 hr 14 min 56 sec) 
Heartbeat CPU  3 instructions:  112000000 cycles:  301578802 heartbeat IPC: 0.21730 cumulative IPC: 0.21447 (Simulation time: 0 hr 14 min 56 sec) 
Heartbeat CPU  2 instructions:  112000000 cycles:  304521466 heartbeat IPC: 0.17653 cumulative IPC: 0.21354 (Simulation time: 0 hr 15 min 2 sec) 
Heartbeat CPU  1 instructions:  113000003 cycles:  305539561 heartbeat IPC: 0.21377 cumulative IPC: 0.21540 (Simulation time: 0 hr 15 min 4 sec) 
Heartbeat CPU  0 instructions:  111000001 cycles:  305706191 heartbeat IPC: 0.21964 cumulative IPC: 0.21804 (Simulation time: 0 hr 15 min 4 sec) 
Heartbeat CPU  3 instructions:  113000000 cycles:  306235037 heartbeat IPC: 0.21477 cumulative IPC: 0.21447 (Simulation time: 0 hr 15 min 5 sec) 
Heartbeat CPU  2 instructions:  113000000 cycles:  309556919 heartbeat IPC: 0.19859 cumulative IPC: 0.21327 (Simulation time: 0 hr 15 min 12 sec) 
Heartbeat CPU  0 instructions:  112000000 cycles:  310149726 heartbeat IPC: 0.22505 cumulative IPC: 0.21815 (Simulation time: 0 hr 15 min 13 sec) 
Heartbeat CPU  1 instructions:  114000001 cycles:  310259844 heartbeat IPC: 0.21185 cumulative IPC: 0.21534 (Simulation time: 0 hr 15 min 14 sec) 
Heartbeat CPU  3 instructions:  114000002 cycles:  310754411 heartbeat IPC: 0.22127 cumulative IPC: 0.21458 (Simulation time: 0 hr 15 min 15 sec) 
Heartbeat CPU  2 instructions:  114000001 cycles:  311442391 heartbeat IPC: 0.53037 cumulative IPC: 0.21537 (Simulation time: 0 hr 15 min 16 sec) 
Heartbeat CPU  2 instructions:  115000003 cycles:  313279941 heartbeat IPC: 0.54420 cumulative IPC: 0.21747 (Simulation time: 0 hr 15 min 21 sec) 
Heartbeat CPU  0 instructions:  113000000 cycles:  314756962 heartbeat IPC: 0.21705 cumulative IPC: 0.21813 (Simulation time: 0 hr 15 min 24 sec) 
Heartbeat CPU  1 instructions:  115000002 cycles:  314895713 heartbeat IPC: 0.21571 cumulative IPC: 0.21535 (Simulation time: 0 hr 15 min 25 sec) 
Heartbeat CPU  2 instructions:  116000000 cycles:  315102326 heartbeat IPC: 0.54873 cumulative IPC: 0.21956 (Simulation time: 0 hr 15 min 25 sec) 
Heartbeat CPU  3 instructions:  115000003 cycles:  315284108 heartbeat IPC: 0.22077 cumulative IPC: 0.21468 (Simulation time: 0 hr 15 min 26 sec) 
Heartbeat CPU  2 instructions:  117000003 cycles:  316849704 heartbeat IPC: 0.57229 cumulative IPC: 0.22167 (Simulation time: 0 hr 15 min 29 sec) 
Heartbeat CPU  2 instructions:  118000002 cycles:  317970656 heartbeat IPC: 0.89210 cumulative IPC: 0.22425 (Simulation time: 0 hr 15 min 33 sec) 
Heartbeat CPU  2 instructions:  119000001 cycles:  318966389 heartbeat IPC: 1.00428 cumulative IPC: 0.22690 (Simulation time: 0 hr 15 min 36 sec) 
Heartbeat CPU  0 instructions:  114000000 cycles:  319395143 heartbeat IPC: 0.21560 cumulative IPC: 0.21809 (Simulation time: 0 hr 15 min 37 sec) 
Heartbeat CPU  1 instructions:  116000000 cycles:  319522000 heartbeat IPC: 0.21616 cumulative IPC: 0.21536 (Simulation time: 0 hr 15 min 37 sec) 
Heartbeat CPU  3 instructions:  116000000 cycles:  319760660 heartbeat IPC: 0.22339 cumulative IPC: 0.21481 (Simulation time: 0 hr 15 min 38 sec) 
Heartbeat CPU  2 instructions:  120000000 cycles:  320103725 heartbeat IPC: 0.87925 cumulative IPC: 0.22942 (Simulation time: 0 hr 15 min 39 sec) 
Heartbeat CPU  2 instructions:  121000002 cycles:  321189844 heartbeat IPC: 0.92071 cumulative IPC: 0.23196 (Simulation time: 0 hr 15 min 42 sec) 
Heartbeat CPU  1 instructions:  117000003 cycles:  323854145 heartbeat IPC: 0.23083 cumulative IPC: 0.21559 (Simulation time: 0 hr 15 min 48 sec) 
Heartbeat CPU  0 instructions:  115000002 cycles:  324024903 heartbeat IPC: 0.21599 cumulative IPC: 0.21806 (Simulation time: 0 hr 15 min 48 sec) 
Heartbeat CPU  3 instructions:  117000003 cycles:  324280544 heartbeat IPC: 0.22125 cumulative IPC: 0.21491 (Simulation time: 0 hr 15 min 49 sec) 
Heartbeat CPU  1 instructions:  118000000 cycles:  324483257 heartbeat IPC: 1.58954 cumulative IPC: 0.21848 (Simulation time: 0 hr 15 min 50 sec) 
Heartbeat CPU  2 instructions:  122000000 cycles:  324563414 heartbeat IPC: 0.29642 cumulative IPC: 0.23269 (Simulation time: 0 hr 15 min 50 sec) 
Heartbeat CPU  1 instructions:  119000002 cycles:  325031207 heartbeat IPC: 1.82499 cumulative IPC: 0.22142 (Simulation time: 0 hr 15 min 52 sec) 
Heartbeat CPU  1 instructions:  120000000 cycles:  326697710 heartbeat IPC: 0.60006 cumulative IPC: 0.22352 (Simulation time: 0 hr 15 min 56 sec) 
Heartbeat CPU  3 instructions:  118000003 cycles:  326819537 heartbeat IPC: 0.39386 cumulative IPC: 0.21642 (Simulation time: 0 hr 15 min 57 sec) 
Heartbeat CPU  3 instructions:  119000002 cycles:  327397047 heartbeat IPC: 1.73157 cumulative IPC: 0.21932 (Simulation time: 0 hr 15 min 59 sec) 
Heartbeat CPU  3 instructions:  120000000 cycles:  327961577 heartbeat IPC: 1.77138 cumulative IPC: 0.22222 (Simulation time: 0 hr 16 min 1 sec) 
Heartbeat CPU  1 instructions:  121000001 cycles:  328449158 heartbeat IPC: 0.57096 cumulative IPC: 0.22553 (Simulation time: 0 hr 16 min 4 sec) 
Heartbeat CPU  3 instructions:  121000000 cycles:  328585464 heartbeat IPC: 1.60285 cumulative IPC: 0.22507 (Simulation time: 0 hr 16 min 4 sec) 
Heartbeat CPU  0 instructions:  116000000 cycles:  328698451 heartbeat IPC: 0.21397 cumulative IPC: 0.21800 (Simulation time: 0 hr 16 min 5 sec) 
Heartbeat CPU  2 instructions:  123000003 cycles:  330439696 heartbeat IPC: 0.17018 cumulative IPC: 0.23149 (Simulation time: 0 hr 16 min 9 sec) 
Heartbeat CPU  3 instructions:  122000002 cycles:  330625912 heartbeat IPC: 0.49009 cumulative IPC: 0.22684 (Simulation time: 0 hr 16 min 9 sec) 
Heartbeat CPU  1 instructions:  122000002 cycles:  331681820 heartbeat IPC: 0.30934 cumulative IPC: 0.22642 (Simulation time: 0 hr 16 min 11 sec) 
Heartbeat CPU  0 instructions:  117000001 cycles:  333278412 heartbeat IPC: 0.21834 cumulative IPC: 0.21800 (Simulation time: 0 hr 16 min 14 sec) 
Heartbeat CPU  3 instructions:  123000002 cycles:  335515212 heartbeat IPC: 0.20453 cumulative IPC: 0.22649 (Simulation time: 0 hr 16 min 18 sec) 
Heartbeat CPU  2 instructions:  124000000 cycles:  336154519 heartbeat IPC: 0.17498 cumulative IPC: 0.23044 (Simulation time: 0 hr 16 min 19 sec) 
Heartbeat CPU  0 instructions:  118000002 cycles:  337934110 heartbeat IPC: 0.21479 cumulative IPC: 0.21795 (Simulation time: 0 hr 16 min 22 sec) 
Heartbeat CPU  1 instructions:  123000000 cycles:  338393332 heartbeat IPC: 0.14900 cumulative IPC: 0.22476 (Simulation time: 0 hr 16 min 23 sec) 
Heartbeat CPU  2 instructions:  125000003 cycles:  339669732 heartbeat IPC: 0.28448 cumulative IPC: 0.23105 (Simulation time: 0 hr 16 min 26 sec) 
Heartbeat CPU  3 instructions:  124000000 cycles:  340157766 heartbeat IPC: 0.21540 cumulative IPC: 0.22633 (Simulation time: 0 hr 16 min 27 sec) 
Heartbeat CPU  2 instructions:  126000000 cycles:  341638925 heartbeat IPC: 0.50782 cumulative IPC: 0.23278 (Simulation time: 0 hr 16 min 30 sec) 
Heartbeat CPU  0 instructions:  119000000 cycles:  342566827 heartbeat IPC: 0.21586 cumulative IPC: 0.21792 (Simulation time: 0 hr 16 min 32 sec) 
Heartbeat CPU  2 instructions:  127000001 cycles:  343588574 heartbeat IPC: 0.51291 cumulative IPC: 0.23450 (Simulation time: 0 hr 16 min 35 sec) 
Heartbeat CPU  3 instructions:  125000000 cycles:  344937729 heartbeat IPC: 0.20921 cumulative IPC: 0.22607 (Simulation time: 0 hr 16 min 38 sec) 
Heartbeat CPU  2 instructions:  128000000 cycles:  346348499 heartbeat IPC: 0.36233 cumulative IPC: 0.23560 (Simulation time: 0 hr 16 min 40 sec) 
Heartbeat CPU  1 instructions:  124000000 cycles:  346863548 heartbeat IPC: 0.11806 cumulative IPC: 0.22194 (Simulation time: 0 hr 16 min 41 sec) 
Heartbeat CPU  0 instructions:  120000000 cycles:  347238975 heartbeat IPC: 0.21403 cumulative IPC: 0.21787 (Simulation time: 0 hr 16 min 42 sec) 
Heartbeat CPU  3 instructions:  126000000 cycles:  349629675 heartbeat IPC: 0.21313 cumulative IPC: 0.22588 (Simulation time: 0 hr 16 min 46 sec) 
Heartbeat CPU  2 instructions:  129000000 cycles:  351852215 heartbeat IPC: 0.18170 cumulative IPC: 0.23469 (Simulation time: 0 hr 16 min 50 sec) 
Heartbeat CPU  0 instructions:  121000001 cycles:  351909300 heartbeat IPC: 0.21412 cumulative IPC: 0.21781 (Simulation time: 0 hr 16 min 50 sec) 
Heartbeat CPU  1 instructions:  125000001 cycles:  353171506 heartbeat IPC: 0.15853 cumulative IPC: 0.22072 (Simulation time: 0 hr 16 min 53 sec) 
Heartbeat CPU  3 instructions:  127000001 cycles:  354357346 heartbeat IPC: 0.21152 cumulative IPC: 0.22568 (Simulation time: 0 hr 16 min 55 sec) 
Heartbeat CPU  0 instructions:  122000000 cycles:  356563528 heartbeat IPC: 0.21486 cumulative IPC: 0.21777 (Simulation time: 0 hr 16 min 59 sec) 
Heartbeat CPU  2 instructions:  130000003 cycles:  357318114 heartbeat IPC: 0.18295 cumulative IPC: 0.23383 (Simulation time: 0 hr 17 min 1 sec) 
Heartbeat CPU  1 instructions:  126000002 cycles:  357710518 heartbeat IPC: 0.22031 cumulative IPC: 0.22071 (Simulation time: 0 hr 17 min 1 sec) 
Heartbeat CPU  3 instructions:  128000000 cycles:  359227420 heartbeat IPC: 0.20534 cumulative IPC: 0.22538 (Simulation time: 0 hr 17 min 4 sec) 
Heartbeat CPU  0 instructions:  123000002 cycles:  361208872 heartbeat IPC: 0.21527 cumulative IPC: 0.21774 (Simulation time: 0 hr 17 min 8 sec) 
Heartbeat CPU  1 instructions:  127000001 cycles:  362228171 heartbeat IPC: 0.22135 cumulative IPC: 0.22072 (Simulation time: 0 hr 17 min 10 sec) 
Heartbeat CPU  2 instructions:  131000003 cycles:  362800186 heartbeat IPC: 0.18241 cumulative IPC: 0.23300 (Simulation time: 0 hr 17 min 11 sec) 
Heartbeat CPU  3 instructions:  129000002 cycles:  365715380 heartbeat IPC: 0.15413 cumulative IPC: 0.22402 (Simulation time: 0 hr 17 min 16 sec) 
Heartbeat CPU  0 instructions:  124000000 cycles:  366008247 heartbeat IPC: 0.20836 cumulative IPC: 0.21760 (Simulation time: 0 hr 17 min 17 sec) 
Heartbeat CPU  1 instructions:  128000000 cycles:  366784814 heartbeat IPC: 0.21946 cumulative IPC: 0.22070 (Simulation time: 0 hr 17 min 18 sec) 
Heartbeat CPU  2 instructions:  132000000 cycles:  368302542 heartbeat IPC: 0.18174 cumulative IPC: 0.23217 (Simulation time: 0 hr 17 min 21 sec) 
Heartbeat CPU  0 instructions:  125000001 cycles:  370716401 heartbeat IPC: 0.21240 cumulative IPC: 0.21753 (Simulation time: 0 hr 17 min 25 sec) 
Heartbeat CPU  1 instructions:  129000000 cycles:  371739328 heartbeat IPC: 0.20184 cumulative IPC: 0.22043 (Simulation time: 0 hr 17 min 27 sec) 
Heartbeat CPU  2 instructions:  133000001 cycles:  373715637 heartbeat IPC: 0.18474 cumulative IPC: 0.23143 (Simulation time: 0 hr 17 min 30 sec) 
Heartbeat CPU  3 instructions:  130000000 cycles:  374129888 heartbeat IPC: 0.11884 cumulative IPC: 0.22148 (Simulation time: 0 hr 17 min 31 sec) 
Heartbeat CPU  0 instructions:  126000002 cycles:  375301660 heartbeat IPC: 0.21809 cumulative IPC: 0.21754 (Simulation time: 0 hr 17 min 33 sec) 
Heartbeat CPU  1 instructions:  130000000 cycles:  376537989 heartbeat IPC: 0.20839 cumulative IPC: 0.22027 (Simulation time: 0 hr 17 min 35 sec) 
Heartbeat CPU  2 instructions:  134000000 cycles:  379135650 heartbeat IPC: 0.18450 cumulative IPC: 0.23071 (Simulation time: 0 hr 17 min 40 sec) 
Heartbeat CPU  0 instructions:  127000003 cycles:  379889481 heartbeat IPC: 0.21797 cumulative IPC: 0.21755 (Simulation time: 0 hr 17 min 42 sec) 
Heartbeat CPU  1 instructions:  131000003 cycles:  381276931 heartbeat IPC: 0.21102 cumulative IPC: 0.22015 (Simulation time: 0 hr 17 min 44 sec) 
[...]
Core_0_LLC_acc_level_4 4103
Core_0_LLC_acc_level_5 7850
Core_0_LLC_acc_level_6 2582
Core_0_LLC_acc_level_7 2237
Core_0_LLC_acc_level_8 1385
Core_0_LLC_acc_level_9 11452

Core_0_major_page_fault 0
Core_0_minor_page_fault 17811

Core_1_instructions 150000001
Core_1_cycles 689250119
Core_1_IPC 0.21763

Core_1_branch_prediction_accuracy 97.15417
Core_1_branch_MPKI 5.21086
Core_1_average_ROB_occupancy_at_mispredict 82.47363

Core_1_L1D_total_access 24458163
Core_1_L1D_total_hit 21296426
Core_1_L1D_total_miss 3161737
Core_1_L1D_loads 14317230
Core_1_L1D_load_hit 11993845
Core_1_L1D_load_miss 2323385
Core_1_L1D_RFOs 10140933
Core_1_L1D_RFO_hit 9302581
Core_1_L1D_RFO_miss 838352
Core_1_L1D_prefetches 0
Core_1_L1D_prefetch_hit 0
Core_1_L1D_prefetch_miss 0
Core_1_L1D_writebacks 0
Core_1_L1D_writeback_hit 0
Core_1_L1D_writeback_miss 0
Core_1_L1D_prefetch_requested 0
Core_1_L1D_prefetch_dropped 0
Core_1_L1D_prefetch_issued 0
Core_1_L1D_prefetch_filled 0
Core_1_L1D_prefetch_useful 0
Core_1_L1D_prefetch_useless 0
Core_1_L1D_prefetch_late 0
Core_1_L1D_average_miss_latency 86.67919

Core_1_L1D_rq_access 27033153
Core_1_L1D_rq_forward 0
Core_1_L1D_rq_merged 12077783
Core_1_L1D_rq_to_cache 14952641
Core_1_L1D_rq_full 0

Core_1_L1D_wq_access 13501297
Core_1_L1D_wq_forward 2729
Core_1_L1D_wq_merged 43979
Core_1_L1D_wq_to_cache 13457318
Core_1_L1D_wq_full 2852

Core_1_L1D_pq_access 0
Core_1_L1D_pq_forward 0
Core_1_L1D_pq_merged 0
Core_1_L1D_pq_to_cache 0
Core_1_L1D_pq_full 0

Core_1_L1D_acc_epochs 172470
Core_1_L1D_acc_level_0 172470
Core_1_L1D_acc_level_1 0
Core_1_L1D_acc_level_2 0
Core_1_L1D_acc_level_3 0
Core_1_L1D_acc_level_4 0
Core_1_L1D_acc_level_5 0
Core_1_L1D_acc_level_6 0
Core_1_L1D_acc_level_7 0
Core_1_L1D_acc_level_8 0
Core_1_L1D_acc_level_9 0

Core_1_L1I_total_access 32843005
Core_1_L1I_total_hit 26850159
Core_1_L1I_total_miss 5992846
Core_1_L1I_loads 32843005
Core_1_L1I_load_hit 26850159
Core_1_L1I_load_miss 5992846
Core_1_L1I_RFOs 0
Core_1_L1I_RFO_hit 0
Core_1_L1I_RFO_miss 0
Core_1_L1I_prefetches 0
Core_1_L1I_prefetch_hit 0
Core_1_L1I_prefetch_miss 0
Core_1_L1I_writebacks 0
Core_1_L1I_writeback_hit 0
Core_1_L1I_writeback_miss 0
Core_1_L1I_prefetch_requested 0
Core_1_L1I_prefetch_dropped 0
Core_1_L1I_prefetch_issued 0
Core_1_L1I_prefetch_filled 0
Core_1_L1I_prefetch_useful 0
Core_1_L1I_prefetch_useless 0
Core_1_L1I_prefetch_late 0
Core_1_L1I_average_miss_latency 86.30990

Core_1_L1I_rq_access 152660031
Core_1_L1I_rq_forward 0
Core_1_L1I_rq_merged 115695493
Core_1_L1I_rq_to_cache 36964538
Core_1_L1I_rq_full 0

Core_1_L1I_wq_access 0
Core_1_L1I_wq_forward 0
Core_1_L1I_wq_merged 0
Core_1_L1I_wq_to_cache 0
Core_1_L1I_wq_full 0

Core_1_L1I_pq_access 0
Core_1_L1I_pq_forward 0
Core_1_L1I_pq_merged 0
Core_1_L1I_pq_to_cache 0
Core_1_L1I_pq_full 0

Core_1_L1I_acc_epochs 172470
Core_1_L1I_acc_level_0 172470
Core_1_L1I_acc_level_1 0
Core_1_L1I_acc_level_2 0
Core_1_L1I_acc_level_3 0
Core_1_L1I_acc_level_4 0
Core_1_L1I_acc_level_5 0
Core_1_L1I_acc_level_6 0
Core_1_L1I_acc_level_7 0
Core_1_L1I_acc_level_8 0
Core_1_L1I_acc_level_9 0

Core_1_L2C_total_access 14788827
Core_1_L2C_total_hit 13356934
Core_1_L2C_total_miss 1431893
Core_1_L2C_loads 8315884
Core_1_L2C_load_hit 7810754
Core_1_L2C_load_miss 505130
Core_1_L2C_RFOs 837965
Core_1_L2C_RFO_hit 443066
Core_1_L2C_RFO_miss 394899
Core_1_L2C_prefetches 4430725
Core_1_L2C_prefetch_hit 3910422
Core_1_L2C_prefetch_miss 520303
Core_1_L2C_writebacks 1204253
Core_1_L2C_writeback_hit 1192692
Core_1_L2C_writeback_miss 11561
Core_1_L2C_prefetch_requested 6517664
Core_1_L2C_prefetch_dropped 0
Core_1_L2C_prefetch_issued 6517664
Core_1_L2C_prefetch_filled 733648
Core_1_L2C_prefetch_useful 656028
Core_1_L2C_prefetch_useless 77457
Core_1_L2C_prefetch_late 35248
Core_1_L2C_average_miss_latency 133.70590

Core_1_L2C_rq_access 9312523
Core_1_L2C_rq_forward 0
Core_1_L2C_rq_merged 0
Core_1_L2C_rq_to_cache 9311785
Core_1_L2C_rq_full 0

Core_1_L2C_wq_access 1224240
Core_1_L2C_wq_forward 751
Core_1_L2C_wq_merged 0
Core_1_L2C_wq_to_cache 1224240
Core_1_L2C_wq_full 0

Core_1_L2C_pq_access 6517664
Core_1_L2C_pq_forward 0
Core_1_L2C_pq_merged 11
Core_1_L2C_pq_to_cache 6517640
Core_1_L2C_pq_full 0

Core_1_L2C_acc_epochs 172470
Core_1_L2C_acc_level_0 79827
Core_1_L2C_acc_level_1 16800
Core_1_L2C_acc_level_2 13151
Core_1_L2C_acc_level_3 7900
Core_1_L2C_acc_level_4 5321
Core_1_L2C_acc_level_5 10207
Core_1_L2C_acc_level_6 4911
Core_1_L2C_acc_level_7 4280
Core_1_L2C_acc_level_8 3598
Core_1_L2C_acc_level_9 26475

Core_1_LLC_total_access 2309694
Core_1_LLC_total_hit 1496624
Core_1_LLC_total_miss 813070
Core_1_LLC_loads 470652
Core_1_LLC_load_hit 346140
Core_1_LLC_load_miss 124512
Core_1_LLC_RFOs 394860
Core_1_LLC_RFO_hit 223872
Core_1_LLC_RFO_miss 170988
Core_1_LLC_prefetches 927103
Core_1_LLC_prefetch_hit 464866
Core_1_LLC_prefetch_miss 462237
Core_1_LLC_writebacks 517079
Core_1_LLC_writeback_hit 461746
Core_1_LLC_writeback_miss 55333
Core_1_LLC_prefetch_requested 0
Core_1_LLC_prefetch_dropped 0
Core_1_LLC_prefetch_issued 0
Core_1_LLC_prefetch_filled 2677864
Core_1_LLC_prefetch_useful 476377
Core_1_LLC_prefetch_useless 2150548
Core_1_LLC_prefetch_late 11604
Core_1_LLC_average_miss_latency 787.47350

Core_1_LLC_rq_access 3515504
Core_1_LLC_rq_forward 0
Core_1_LLC_rq_merged 0
Core_1_LLC_rq_to_cache 3515392
Core_1_LLC_rq_full 0

Core_1_LLC_wq_access 2061933
Core_1_LLC_wq_forward 133
Core_1_LLC_wq_merged 0
Core_1_LLC_wq_to_cache 2061933
Core_1_LLC_wq_full 0

Core_1_LLC_pq_access 5670503
Core_1_LLC_pq_forward 0
Core_1_LLC_pq_merged 0
Core_1_LLC_pq_to_cache 5670482
Core_1_LLC_pq_full 0

Core_1_LLC_acc_epochs 710501
Core_1_LLC_acc_level_0 616757
Core_1_LLC_acc_level_1 36382
Core_1_LLC_acc_level_2 18965
Core_1_LLC_acc_level_3 8788
Core_1_LLC_acc_level_4 4103
Core_1_LLC_acc_level_5 7850
Core_1_LLC_acc_level_6 2582
Core_1_LLC_acc_level_7 2237
Core_1_LLC_acc_level_8 1385
Core_1_LLC_acc_level_9 11452

Core_1_major_page_fault 0
Core_1_minor_page_fault 18204

Core_2_instructions 150000003
Core_2_cycles 700934395
Core_2_IPC 0.21400

Core_2_branch_prediction_accuracy 95.93501
Core_2_branch_MPKI 7.11779
Core_2_average_ROB_occupancy_at_mispredict 75.80612

Core_2_L1D_total_access 21986585
Core_2_L1D_total_hit 19121663
Core_2_L1D_total_miss 2864922
Core_2_L1D_loads 13832127
Core_2_L1D_load_hit 11679301
Core_2_L1D_load_miss 2152826
Core_2_L1D_RFOs 8154458
Core_2_L1D_RFO_hit 7442362
Core_2_L1D_RFO_miss 712096
Core_2_L1D_prefetches 0
Core_2_L1D_prefetch_hit 0
Core_2_L1D_prefetch_miss 0
Core_2_L1D_writebacks 0
Core_2_L1D_writeback_hit 0
Core_2_L1D_writeback_miss 0
Core_2_L1D_prefetch_requested 0
Core_2_L1D_prefetch_dropped 0
Core_2_L1D_prefetch_issued 0
Core_2_L1D_prefetch_filled 0
Core_2_L1D_prefetch_useful 0
Core_2_L1D_prefetch_useless 0
Core_2_L1D_prefetch_late 0
Core_2_L1D_average_miss_latency 85.21896

Core_2_L1D_rq_access 25705393
Core_2_L1D_rq_forward 0
Core_2_L1D_rq_merged 11109869
Core_2_L1D_rq_to_cache 14590681
Core_2_L1D_rq_full 0

Core_2_L1D_wq_access 10512597
Core_2_L1D_wq_forward 4843
Core_2_L1D_wq_merged 32745
Core_2_L1D_wq_to_cache 10479852
Core_2_L1D_wq_full 252

Core_2_L1D_pq_access 0
Core_2_L1D_pq_forward 0
Core_2_L1D_pq_merged 0
Core_2_L1D_pq_to_cache 0
Core_2_L1D_pq_full 0

Core_2_L1D_acc_epochs 176675
Core_2_L1D_acc_level_0 176675
Core_2_L1D_acc_level_1 0
Core_2_L1D_acc_level_2 0
Core_2_L1D_acc_level_3 0
Core_2_L1D_acc_level_4 0
Core_2_L1D_acc_level_5 0
Core_2_L1D_acc_level_6 0
Core_2_L1D_acc_level_7 0
Core_2_L1D_acc_level_8 0
Core_2_L1D_acc_level_9 0

Core_2_L1I_total_access 29887666
Core_2_L1I_total_hit 25491398
Core_2_L1I_total_miss 4396268
Core_2_L1I_loads 29887666
Core_2_L1I_load_hit 25491398
Core_2_L1I_load_miss 4396268
Core_2_L1I_RFOs 0
Core_2_L1I_RFO_hit 0
Core_2_L1I_RFO_miss 0
Core_2_L1I_prefetches 0
Core_2_L1I_prefetch_hit 0
Core_2_L1I_prefetch_miss 0
Core_2_L1I_writebacks 0
Core_2_L1I_writeback_hit 0
Core_2_L1I_writeback_miss 0
Core_2_L1I_prefetch_requested 0
Core_2_L1I_prefetch_dropped 0
Core_2_L1I_prefetch_issued 0
Core_2_L1I_prefetch_filled 0
Core_2_L1I_prefetch_useful 0
Core_2_L1I_prefetch_useless 0
Core_2_L1I_prefetch_late 0
Core_2_L1I_average_miss_latency 86.73203

Core_2_L1I_rq_access 150445257
Core_2_L1I_rq_forward 0
Core_2_L1I_rq_merged 118115025
Core_2_L1I_rq_to_cache 32330232
Core_2_L1I_rq_full 0

Core_2_L1I_wq_access 0
Core_2_L1I_wq_forward 0
Core_2_L1I_wq_merged 0
Core_2_L1I_wq_to_cache 0
Core_2_L1I_wq_full 0

Core_2_L1I_pq_access 0
Core_2_L1I_pq_forward 0
Core_2_L1I_pq_merged 0
Core_2_L1I_pq_to_cache 0
Core_2_L1I_pq_full 0

Core_2_L1I_acc_epochs 176675
Core_2_L1I_acc_level_0 176675
Core_2_L1I_acc_level_1 0
Core_2_L1I_acc_level_2 0
Core_2_L1I_acc_level_3 0
Core_2_L1I_acc_level_4 0
Core_2_L1I_acc_level_5 0
Core_2_L1I_acc_level_6 0
Core_2_L1I_acc_level_7 0
Core_2_L1I_acc_level_8 0
Core_2_L1I_acc_level_9 0

Core_2_L2C_total_access 12936577
Core_2_L2C_total_hit 11475791
Core_2_L2C_total_miss 1460786
Core_2_L2C_loads 6548798
Core_2_L2C_load_hit 6006231
Core_2_L2C_load_miss 542567
Core_2_L2C_RFOs 711755
Core_2_L2C_RFO_hit 452647
Core_2_L2C_RFO_miss 259108
Core_2_L2C_prefetches 4486447
Core_2_L2C_prefetch_hit 3839291
Core_2_L2C_prefetch_miss 647156
Core_2_L2C_writebacks 1189577
Core_2_L2C_writeback_hit 1177622
Core_2_L2C_writeback_miss 11955
Core_2_L2C_prefetch_requested 6592269
Core_2_L2C_prefetch_dropped 0
Core_2_L2C_prefetch_issued 6592269
Core_2_L2C_prefetch_filled 880399
Core_2_L2C_prefetch_useful 783377
Core_2_L2C_prefetch_useless 96820
Core_2_L2C_prefetch_late 22697
Core_2_L2C_average_miss_latency 142.45617

Core_2_L2C_rq_access 7265321
Core_2_L2C_rq_forward 0
Core_2_L2C_rq_merged 0
Core_2_L2C_rq_to_cache 7264684
Core_2_L2C_rq_full 0

Core_2_L2C_wq_access 1189990
Core_2_L2C_wq_forward 660
Core_2_L2C_wq_merged 0
Core_2_L2C_wq_to_cache 1189990
Core_2_L2C_wq_full 0

Core_2_L2C_pq_access 6592269
Core_2_L2C_pq_forward 0
Core_2_L2C_pq_merged 35
Core_2_L2C_pq_to_cache 6592211
Core_2_L2C_pq_full 0

Core_2_L2C_acc_epochs 176675
Core_2_L2C_acc_level_0 43479
Core_2_L2C_acc_level_1 19950
Core_2_L2C_acc_level_2 17135
Core_2_L2C_acc_level_3 13403
Core_2_L2C_acc_level_4 9257
Core_2_L2C_acc_level_5 14269
Core_2_L2C_acc_level_6 9128
Core_2_L2C_acc_level_7 7735
Core_2_L2C_acc_level_8 6214
Core_2_L2C_acc_level_9 36105

Core_2_LLC_total_access 2323349
Core_2_LLC_total_hit 1541500
Core_2_LLC_total_miss 781849
Core_2_LLC_loads 520069
Core_2_LLC_load_hit 381149
Core_2_LLC_load_miss 138920
Core_2_LLC_RFOs 259061
Core_2_LLC_RFO_hit 137503
Core_2_LLC_RFO_miss 121558
Core_2_LLC_prefetches 1116057
Core_2_LLC_prefetch_hit 628466
Core_2_LLC_prefetch_miss 487591
Core_2_LLC_writebacks 428162
Core_2_LLC_writeback_hit 394382
Core_2_LLC_writeback_miss 33780
Core_2_LLC_prefetch_requested 0
Core_2_LLC_prefetch_dropped 0
Core_2_LLC_prefetch_issued 0
Core_2_LLC_prefetch_filled 2677864
Core_2_LLC_prefetch_useful 476377
Core_2_LLC_prefetch_useless 2150548
Core_2_LLC_prefetch_late 11604
Core_2_LLC_average_miss_latency 818.91910

Core_2_LLC_rq_access 3515504
Core_2_LLC_rq_forward 0
Core_2_LLC_rq_merged 0
Core_2_LLC_rq_to_cache 3515392
Core_2_LLC_rq_full 0

Core_2_LLC_wq_access 2061933
Core_2_LLC_wq_forward 133
Core_2_LLC_wq_merged 0
Core_2_LLC_wq_to_cache 2061933
Core_2_LLC_wq_full 0

Core_2_LLC_pq_access 5670503
Core_2_LLC_pq_forward 0
Core_2_LLC_pq_merged 0
Core_2_LLC_pq_to_cache 5670482
Core_2_LLC_pq_full 0

Core_2_LLC_acc_epochs 710501
Core_2_LLC_acc_level_0 616757
Core_2_LLC_acc_level_1 36382
Core_2_LLC_acc_level_2 18965
Core_2_LLC_acc_level_3 8788
Core_2_LLC_acc_level_4 4103
Core_2_LLC_acc_level_5 7850
Core_2_LLC_acc_level_6 2582
Core_2_LLC_acc_level_7 2237
Core_2_LLC_acc_level_8 1385
Core_2_LLC_acc_level_9 11452

Core_2_major_page_fault 0
Core_2_minor_page_fault 16457

Core_3_instructions 150000003
Core_3_cycles 700346416
Core_3_IPC 0.21418

Core_3_branch_prediction_accuracy 97.22232
Core_3_branch_MPKI 5.06261
Core_3_average_ROB_occupancy_at_mispredict 83.42859

Core_3_L1D_total_access 24354812
Core_3_L1D_total_hit 21251017
Core_3_L1D_total_miss 3103795
Core_3_L1D_loads 14197452
Core_3_L1D_load_hit 11927772
Core_3_L1D_load_miss 2269680
Core_3_L1D_RFOs 10157360
Core_3_L1D_RFO_hit 9323245
Core_3_L1D_RFO_miss 834115
Core_3_L1D_prefetches 0
Core_3_L1D_prefetch_hit 0
Core_3_L1D_prefetch_miss 0
Core_3_L1D_writebacks 0
Core_3_L1D_writeback_hit 0
Core_3_L1D_writeback_miss 0
Core_3_L1D_prefetch_requested 0
Core_3_L1D_prefetch_dropped 0
Core_3_L1D_prefetch_issued 0
Core_3_L1D_prefetch_filled 0
Core_3_L1D_prefetch_useful 0
Core_3_L1D_prefetch_useless 0
Core_3_L1D_prefetch_late 0
Core_3_L1D_average_miss_latency 87.82124

Core_3_L1D_rq_access 26597394
Core_3_L1D_rq_forward 0
Core_3_L1D_rq_merged 11983332
Core_3_L1D_rq_to_cache 14611338
Core_3_L1D_rq_full 0

Core_3_L1D_wq_access 13220541
Core_3_L1D_wq_forward 2724
Core_3_L1D_wq_merged 43763
Core_3_L1D_wq_to_cache 13176778
Core_3_L1D_wq_full 6086

Core_3_L1D_pq_access 0
Core_3_L1D_pq_forward 0
Core_3_L1D_pq_merged 0
Core_3_L1D_pq_to_cache 0
Core_3_L1D_pq_full 0

Core_3_L1D_acc_epochs 166780
Core_3_L1D_acc_level_0 166780
Core_3_L1D_acc_level_1 0
Core_3_L1D_acc_level_2 0
Core_3_L1D_acc_level_3 0
Core_3_L1D_acc_level_4 0
Core_3_L1D_acc_level_5 0
Core_3_L1D_acc_level_6 0
Core_3_L1D_acc_level_7 0
Core_3_L1D_acc_level_8 0
Core_3_L1D_acc_level_9 0

Core_3_L1I_total_access 32627017
Core_3_L1I_total_hit 26624420
Core_3_L1I_total_miss 6002597
Core_3_L1I_loads 32627017
Core_3_L1I_load_hit 26624420
Core_3_L1I_load_miss 6002597
Core_3_L1I_RFOs 0
Core_3_L1I_RFO_hit 0
Core_3_L1I_RFO_miss 0
Core_3_L1I_prefetches 0
Core_3_L1I_prefetch_hit 0
Core_3_L1I_prefetch_miss 0
Core_3_L1I_writebacks 0
Core_3_L1I_writeback_hit 0
Core_3_L1I_writeback_miss 0
Core_3_L1I_prefetch_requested 0
Core_3_L1I_prefetch_dropped 0
Core_3_L1I_prefetch_issued 0
Core_3_L1I_prefetch_filled 0
Core_3_L1I_prefetch_useful 0
Core_3_L1I_prefetch_useless 0
Core_3_L1I_prefetch_late 0
Core_3_L1I_average_miss_latency 85.33530

Core_3_L1I_rq_access 150267275
Core_3_L1I_rq_forward 0
Core_3_L1I_rq_merged 114091742
Core_3_L1I_rq_to_cache 36175533
Core_3_L1I_rq_full 0

Core_3_L1I_wq_access 0
Core_3_L1I_wq_forward 0
Core_3_L1I_wq_merged 0
Core_3_L1I_wq_to_cache 0
Core_3_L1I_wq_full 0

Core_3_L1I_pq_access 0
Core_3_L1I_pq_forward 0
Core_3_L1I_pq_merged 0
Core_3_L1I_pq_to_cache 0
Core_3_L1I_pq_full 0

Core_3_L1I_acc_epochs 166780
Core_3_L1I_acc_level_0 166780
Core_3_L1I_acc_level_1 0
Core_3_L1I_acc_level_2 0
Core_3_L1I_acc_level_3 0
Core_3_L1I_acc_level_4 0
Core_3_L1I_acc_level_5 0
Core_3_L1I_acc_level_6 0
Core_3_L1I_acc_level_7 0
Core_3_L1I_acc_level_8 0
Core_3_L1I_acc_level_9 0

Core_3_L2C_total_access 14347782
Core_3_L2C_total_hit 12792726
Core_3_L2C_total_miss 1555056
Core_3_L2C_loads 8271784
Core_3_L2C_load_hit 7736231
Core_3_L2C_load_miss 535553
Core_3_L2C_RFOs 833740
Core_3_L2C_RFO_hit 440387
Core_3_L2C_RFO_miss 393353
Core_3_L2C_prefetches 4041332
Core_3_L2C_prefetch_hit 3428484
Core_3_L2C_prefetch_miss 612848
Core_3_L2C_writebacks 1200926
Core_3_L2C_writeback_hit 1187624
Core_3_L2C_writeback_miss 13302
Core_3_L2C_prefetch_requested 5971657
Core_3_L2C_prefetch_dropped 0
Core_3_L2C_prefetch_issued 5971657
Core_3_L2C_prefetch_filled 878724
Core_3_L2C_prefetch_useful 795886
Core_3_L2C_prefetch_useless 82715
Core_3_L2C_prefetch_late 35700
Core_3_L2C_average_miss_latency 129.35144

Core_3_L2C_rq_access 9124468
Core_3_L2C_rq_forward 0
Core_3_L2C_rq_merged 0
Core_3_L2C_rq_to_cache 9123599
Core_3_L2C_rq_full 0

Core_3_L2C_wq_access 1203556
Core_3_L2C_wq_forward 881
Core_3_L2C_wq_merged 0
Core_3_L2C_wq_to_cache 1203556
Core_3_L2C_wq_full 0

Core_3_L2C_pq_access 5971657
Core_3_L2C_pq_forward 0
Core_3_L2C_pq_merged 40
Core_3_L2C_pq_to_cache 5971605
Core_3_L2C_pq_full 0

Core_3_L2C_acc_epochs 166780
Core_3_L2C_acc_level_0 67117
Core_3_L2C_acc_level_1 16078
Core_3_L2C_acc_level_2 12696
Core_3_L2C_acc_level_3 8423
Core_3_L2C_acc_level_4 5736
Core_3_L2C_acc_level_5 10203
Core_3_L2C_acc_level_6 5347
Core_3_L2C_acc_level_7 4739
Core_3_L2C_acc_level_8 4052
Core_3_L2C_acc_level_9 32389

Core_3_LLC_total_access 2464906
Core_3_LLC_total_hit 1667390
Core_3_LLC_total_miss 797516
Core_3_LLC_loads 500176
Core_3_LLC_load_hit 386519
Core_3_LLC_load_miss 113657
Core_3_LLC_RFOs 393324
Core_3_LLC_RFO_hit 230281
Core_3_LLC_RFO_miss 163043
Core_3_LLC_prefetches 1032872
Core_3_LLC_prefetch_hit 569577
Core_3_LLC_prefetch_miss 463295
Core_3_LLC_writebacks 538534
Core_3_LLC_writeback_hit 481013
Core_3_LLC_writeback_miss 57521
Core_3_LLC_prefetch_requested 0
Core_3_LLC_prefetch_dropped 0
Core_3_LLC_prefetch_issued 0
Core_3_LLC_prefetch_filled 2677864
Core_3_LLC_prefetch_useful 476377
Core_3_LLC_prefetch_useless 2150548
Core_3_LLC_prefetch_late 11604
Core_3_LLC_average_miss_latency 802.83164

Core_3_LLC_rq_access 3515504
Core_3_LLC_rq_forward 0
Core_3_LLC_rq_merged 0
Core_3_LLC_rq_to_cache 3515392
Core_3_LLC_rq_full 0

Core_3_LLC_wq_access 2061933
Core_3_LLC_wq_forward 133
Core_3_LLC_wq_merged 0
Core_3_LLC_wq_to_cache 2061933
Core_3_LLC_wq_full 0

Core_3_LLC_pq_access 5670503
Core_3_LLC_pq_forward 0
Core_3_LLC_pq_merged 0
Core_3_LLC_pq_to_cache 5670482
Core_3_LLC_pq_full 0

Core_3_LLC_acc_epochs 710501
Core_3_LLC_acc_level_0 616757
Core_3_LLC_acc_level_1 36382
Core_3_LLC_acc_level_2 18965
Core_3_LLC_acc_level_3 8788
Core_3_LLC_acc_level_4 4103
Core_3_LLC_acc_level_5 7850
Core_3_LLC_acc_level_6 2582
Core_3_LLC_acc_level_7 2237
Core_3_LLC_acc_level_8 1385
Core_3_LLC_acc_level_9 11452

Core_3_major_page_fault 0
Core_3_minor_page_fault 16878

[Bingo] PHT Access: 2206753
[Bingo] PHT Hit PC+Addr: 1511855
[Bingo] PHT Hit PC+Offs: 144826
[Bingo] PHT Miss: 550072
[Bingo] Prefetch PC+Addr: 0
[Bingo] Prefetch PC+Offs: 0
[Bingo] Useful PC+Addr: 0
[Bingo] Useful PC+Offs: 0
[Bingo] Useless PC+Addr: 0
[Bingo] Useless PC+Offs: 0
[Bingo] L1 Prefetch per Region: 0.00000
[Bingo] L2 Prefetch per Region: 4.33846
[Bingo] L3 Prefetch per Region: 0.34740
[Bingo] No Prefetch per Region: 27.31415
[Bingo] Number of Voters Mean: 4.71642
[Bingo] Number of Voters SD: 4.77711

[Bingo] PHT Access: 2389544
[Bingo] PHT Hit PC+Addr: 1647150
[Bingo] PHT Hit PC+Offs: 135800
[Bingo] PHT Miss: 606594
[Bingo] Prefetch PC+Addr: 0
[Bingo] Prefetch PC+Offs: 0
[Bingo] Useful PC+Addr: 0
[Bingo] Useful PC+Offs: 0
[Bingo] Useless PC+Addr: 0
[Bingo] Useless PC+Offs: 0
[Bingo] L1 Prefetch per Region: 0.00000
[Bingo] L2 Prefetch per Region: 4.34663
[Bingo] L3 Prefetch per Region: 0.31243
[Bingo] No Prefetch per Region: 27.34094
[Bingo] Number of Voters Mean: 4.51199
[Bingo] Number of Voters SD: 4.52803

[Bingo] PHT Access: 2042859
[Bingo] PHT Hit PC+Addr: 1418851
[Bingo] PHT Hit PC+Offs: 141173
[Bingo] PHT Miss: 482835
[Bingo] Prefetch PC+Addr: 0
[Bingo] Prefetch PC+Offs: 0
[Bingo] Useful PC+Addr: 0
[Bingo] Useful PC+Offs: 0
[Bingo] Useless PC+Addr: 0
[Bingo] Useless PC+Offs: 0
[Bingo] L1 Prefetch per Region: 0.00000
[Bingo] L2 Prefetch per Region: 4.83853
[Bingo] L3 Prefetch per Region: 0.39751
[Bingo] No Prefetch per Region: 26.76396
[Bingo] Number of Voters Mean: 5.77240
[Bingo] Number of Voters SD: 4.87697

[Bingo] PHT Access: 2212127
[Bingo] PHT Hit PC+Addr: 1483272
[Bingo] PHT Hit PC+Offs: 139879
[Bingo] PHT Miss: 588976
[Bingo] Prefetch PC+Addr: 0
[Bingo] Prefetch PC+Offs: 0
[Bingo] Useful PC+Addr: 0
[Bingo] Useful PC+Offs: 0
[Bingo] Useless PC+Addr: 0
[Bingo] Useless PC+Offs: 0
[Bingo] L1 Prefetch per Region: 0.00000
[Bingo] L2 Prefetch per Region: 4.31361
[Bingo] L3 Prefetch per Region: 0.36943
[Bingo] No Prefetch per Region: 27.31696
[Bingo] Number of Voters Mean: 5.26921
[Bingo] Number of Voters SD: 5.11359

Channel_0_RQ_row_buffer_hit 668497
Channel_0_RQ_row_buffer_miss 887631
Channel_0_WQ_row_buffer_hit 46908
Channel_0_WQ_row_buffer_miss 353268
Channel_0_WQ_full 0
Channel_0_dbus_congested 1103926

Channel_1_RQ_row_buffer_hit 666640
Channel_1_RQ_row_buffer_miss 896295
Channel_1_WQ_row_buffer_hit 46803
Channel_1_WQ_row_buffer_miss 352463
Channel_1_WQ_full 0
Channel_1_dbus_congested 1109442

avg_congested_cycle 10

DRAM_bw_pochs 2842001
DRAM_bw_level_0 2665952
DRAM_bw_level_1 86032
DRAM_bw_level_2 37887
DRAM_bw_level_3 52130
