*************************************************
   ChampSim Multicore Out-of-Order Simulator
   Last compiled: Mar 31 2025 20:14:32
*************************************************
parsing config file: /data3/config/mlop.ini

trace_0 /data3/STREAMING/traces/streaming_phase1_core0.trace.xz
trace_1 /data3/STREAMING/traces/streaming_phase1_core1.trace.xz
trace_2 /data3/STREAMING/traces/streaming_phase1_core2.trace.xz
trace_3 /data3/STREAMING/traces/streaming_phase1_core3.trace.xz
adding L2C_PREFETCHER: MLOP
adding L2C_PREFETCHER: MLOP
adding L2C_PREFETCHER: MLOP
adding L2C_PREFETCHER: MLOP
Initialize SHIP state
warmup_instructions 50000000
simulation_instructions 150000000
champsim_seed 8850
measure_ipc 0
measure_ipc_epoch 1000
measure_dram_bw 1
measure_dram_bw_epoch 256
measure_cache_acc 1
measure_cache_acc_epoch 1024
l1d_perfect 0
l2c_perfect 0
llc_perfect 0
l1d_semi_perfect 0
l2c_semi_perfect 0
llc_semi_perfect 0
semi_perfect_cache_page_buffer_size 64

num_cpus 4
cpu_freq 4000
dram_io_freq 2400
page_size 4096
block_size 64
max_read_per_cycle 8
max_fill_per_cycle 1
dram_channels 2
log2_dram_channels 1
dram_ranks 1
dram_banks 8
dram_rows 65536
dram_columns 128
dram_row_size 8
dram_size 8192
dram_pages 2097152

fetch_width 6
decode_width 6
exec_width 4
lq_width 2
sq_width 2
retire_width 4
scheduler_size 128
branch_mispredict_penalty 20
rob_size 256
lq_size 72
sq_size 56
num_instr_destinations_sparc 4
num_instr_destinations 2
num_instr_sources 4

itlb_set 16
itlb_way 8
itlb_rq_size 16
itlb_wq_size 16
itlb_pq_size 0
itlb_mshr_size 8
itlb_latency 1

dtlb_set 16
dtlb_way 4
dtlb_rq_size 16
dtlb_wq_size 16
dtlb_pq_size 0
dtlb_mshr_size 8
dtlb_latency 1

stlb_set 128
stlb_way 12
stlb_rq_size 32
stlb_wq_size 32
stlb_pq_size 0
stlb_mshr_size 16
stlb_latency 8

l1i_size 32
l1i_set 64
l1i_way 8
l1i_rq_size 64
l1i_wq_size 64
l1i_pq_size 8
l1i_mshr_size 8
l1i_latency 1

l1d_size 32
l1d_set 64
l1d_way 8
l1d_rq_size 64
l1d_wq_size 64
l1d_pq_size 8
l1d_mshr_size 16
l1d_latency 4

l2c_size 256
l2c_set 512
l2c_way 8
l2c_rq_size 32
l2c_wq_size 32
l2c_pq_size 32
l2c_mshr_size 32
l2c_latency 10

llc_size 8192
llc_set 8192
llc_way 16
llc_rq_size 128
llc_wq_size 128
llc_pq_size 128
llc_mshr_size 256
llc_latency 20

dram_channel_width 8
dram_wq_size 64
dram_rq_size 64
tRP 15
tRCD 15
tCAS 12.5
dram_dbus_turn_around_time 30
dram_write_high_wm 56
dram_write_low_wm 48
min_dram_writes_per_switch 16
dram_mtps 2400
dram_dbus_return_time 13

mlop_pref_degree 16
mlop_num_updates 500
mlop_l1d_thresh 2
mlop_l2c_thresh 0.75
mlop_llc_thresh 0.3
mlop_debug_level 0
mlop_blocks_in_cache 4096
mlop_blocks_in_zone 64
mlop_amt_size 2048
mlop_PF_DEGREE 16
mlop_NUM_UPDATES 500
mlop_L1D_THRESH 1000
mlop_L2C_THRESH 375
mlop_LLC_THRESH 150
mlop_ORIGIN 63
mlop_MAX_OFFSET 63
mlop_MIN_OFFSET -63
mlop_ORIGIN 63
mlop_NUM_OFFSETS 127


Heartbeat CPU  2 instructions:    1000003 cycles:     309567 heartbeat IPC: 3.23033 cumulative IPC: 3.23033 (Simulation time: 0 hr 0 min 3 sec) 
Heartbeat CPU  1 instructions:    1000000 cycles:     579283 heartbeat IPC: 1.72627 cumulative IPC: 1.72627 (Simulation time: 0 hr 0 min 8 sec) 
Heartbeat CPU  3 instructions:    1000000 cycles:     600816 heartbeat IPC: 1.66440 cumulative IPC: 1.66440 (Simulation time: 0 hr 0 min 8 sec) 
Heartbeat CPU  0 instructions:    1000003 cycles:     602363 heartbeat IPC: 1.66013 cumulative IPC: 1.66013 (Simulation time: 0 hr 0 min 8 sec) 
Heartbeat CPU  2 instructions:    2000002 cycles:     625531 heartbeat IPC: 3.16491 cumulative IPC: 3.19729 (Simulation time: 0 hr 0 min 8 sec) 
Heartbeat CPU  2 instructions:    3000001 cycles:     929549 heartbeat IPC: 3.28928 cumulative IPC: 3.22737 (Simulation time: 0 hr 0 min 13 sec) 
Heartbeat CPU  1 instructions:    2000001 cycles:    1062062 heartbeat IPC: 2.07134 cumulative IPC: 1.88313 (Simulation time: 0 hr 0 min 15 sec) 
Heartbeat CPU  3 instructions:    2000000 cycles:    1096241 heartbeat IPC: 2.01847 cumulative IPC: 1.82442 (Simulation time: 0 hr 0 min 16 sec) 
Heartbeat CPU  0 instructions:    2000000 cycles:    1123973 heartbeat IPC: 1.91714 cumulative IPC: 1.77940 (Simulation time: 0 hr 0 min 16 sec) 
Heartbeat CPU  2 instructions:    4000000 cycles:    1231138 heartbeat IPC: 3.31577 cumulative IPC: 3.24903 (Simulation time: 0 hr 0 min 18 sec) 
Heartbeat CPU  2 instructions:    5000000 cycles:    1540174 heartbeat IPC: 3.23587 cumulative IPC: 3.24639 (Simulation time: 0 hr 0 min 23 sec) 
Heartbeat CPU  1 instructions:    3000001 cycles:    1542618 heartbeat IPC: 2.08092 cumulative IPC: 1.94475 (Simulation time: 0 hr 0 min 23 sec) 
Heartbeat CPU  3 instructions:    3000003 cycles:    1617363 heartbeat IPC: 1.91894 cumulative IPC: 1.85487 (Simulation time: 0 hr 0 min 24 sec) 
Heartbeat CPU  0 instructions:    3000003 cycles:    1617384 heartbeat IPC: 2.02671 cumulative IPC: 1.85485 (Simulation time: 0 hr 0 min 24 sec) 
Heartbeat CPU  2 instructions:    6000000 cycles:    1848208 heartbeat IPC: 3.24639 cumulative IPC: 3.24639 (Simulation time: 0 hr 0 min 28 sec) 
Heartbeat CPU  1 instructions:    4000000 cycles:    1990910 heartbeat IPC: 2.23069 cumulative IPC: 2.00913 (Simulation time: 0 hr 0 min 30 sec) 
Heartbeat CPU  0 instructions:    4000000 cycles:    2112772 heartbeat IPC: 2.01861 cumulative IPC: 1.89325 (Simulation time: 0 hr 0 min 31 sec) 
Heartbeat CPU  3 instructions:    4000000 cycles:    2115793 heartbeat IPC: 2.00629 cumulative IPC: 1.89054 (Simulation time: 0 hr 0 min 32 sec) 
Heartbeat CPU  1 instructions:    5000002 cycles:    2448103 heartbeat IPC: 2.18726 cumulative IPC: 2.04240 (Simulation time: 0 hr 0 min 36 sec) 
Heartbeat CPU  3 instructions:    5000000 cycles:    2602721 heartbeat IPC: 2.05369 cumulative IPC: 1.92107 (Simulation time: 0 hr 0 min 38 sec) 
Heartbeat CPU  2 instructions:    7000000 cycles:    2636151 heartbeat IPC: 1.26913 cumulative IPC: 2.65539 (Simulation time: 0 hr 0 min 38 sec) 
Heartbeat CPU  0 instructions:    5000002 cycles:    2672439 heartbeat IPC: 1.78678 cumulative IPC: 1.87095 (Simulation time: 0 hr 0 min 39 sec) 
Heartbeat CPU  1 instructions:    6000001 cycles:    2916862 heartbeat IPC: 2.13329 cumulative IPC: 2.05701 (Simulation time: 0 hr 0 min 42 sec) 
Heartbeat CPU  3 instructions:    6000000 cycles:    2977216 heartbeat IPC: 2.67026 cumulative IPC: 2.01531 (Simulation time: 0 hr 0 min 43 sec) 
Heartbeat CPU  0 instructions:    6000001 cycles:    3204619 heartbeat IPC: 1.87906 cumulative IPC: 1.87230 (Simulation time: 0 hr 0 min 46 sec) 
Heartbeat CPU  2 instructions:    8000000 cycles:    3295170 heartbeat IPC: 1.51741 cumulative IPC: 2.42780 (Simulation time: 0 hr 0 min 47 sec) 
Heartbeat CPU  1 instructions:    7000001 cycles:    3525894 heartbeat IPC: 1.64195 cumulative IPC: 1.98531 (Simulation time: 0 hr 0 min 49 sec) 
Heartbeat CPU  3 instructions:    7000000 cycles:    3548845 heartbeat IPC: 1.74939 cumulative IPC: 1.97247 (Simulation time: 0 hr 0 min 50 sec) 
Heartbeat CPU  0 instructions:    7000001 cycles:    3799836 heartbeat IPC: 1.68006 cumulative IPC: 1.84219 (Simulation time: 0 hr 0 min 53 sec) 
Heartbeat CPU  2 instructions:    9000002 cycles:    3923279 heartbeat IPC: 1.59208 cumulative IPC: 2.29400 (Simulation time: 0 hr 0 min 54 sec) 
Heartbeat CPU  3 instructions:    8000000 cycles:    4047701 heartbeat IPC: 2.00459 cumulative IPC: 1.97643 (Simulation time: 0 hr 0 min 56 sec) 
Heartbeat CPU  1 instructions:    8000000 cycles:    4075545 heartbeat IPC: 1.81933 cumulative IPC: 1.96293 (Simulation time: 0 hr 0 min 56 sec) 
Heartbeat CPU  0 instructions:    8000000 cycles:    4337122 heartbeat IPC: 1.86120 cumulative IPC: 1.84454 (Simulation time: 0 hr 1 min 0 sec) 
Heartbeat CPU  2 instructions:   10000000 cycles:    4534953 heartbeat IPC: 1.63485 cumulative IPC: 2.20509 (Simulation time: 0 hr 1 min 2 sec) 
Heartbeat CPU  3 instructions:    9000000 cycles:    4576216 heartbeat IPC: 1.89209 cumulative IPC: 1.96669 (Simulation time: 0 hr 1 min 3 sec) 
Heartbeat CPU  1 instructions:    9000002 cycles:    4608670 heartbeat IPC: 1.87574 cumulative IPC: 1.95284 (Simulation time: 0 hr 1 min 3 sec) 
Heartbeat CPU  0 instructions:    9000000 cycles:    4853160 heartbeat IPC: 1.93784 cumulative IPC: 1.85446 (Simulation time: 0 hr 1 min 6 sec) 
Heartbeat CPU  2 instructions:   11000002 cycles:    5044203 heartbeat IPC: 1.96368 cumulative IPC: 2.18072 (Simulation time: 0 hr 1 min 9 sec) 
Heartbeat CPU  3 instructions:   10000000 cycles:    5129224 heartbeat IPC: 1.80829 cumulative IPC: 1.94961 (Simulation time: 0 hr 1 min 10 sec) 
Heartbeat CPU  1 instructions:   10000001 cycles:    5186196 heartbeat IPC: 1.73152 cumulative IPC: 1.92820 (Simulation time: 0 hr 1 min 11 sec) 
Heartbeat CPU  2 instructions:   12000000 cycles:    5353643 heartbeat IPC: 3.23164 cumulative IPC: 2.24146 (Simulation time: 0 hr 1 min 13 sec) 
Heartbeat CPU  0 instructions:   10000003 cycles:    5389835 heartbeat IPC: 1.86333 cumulative IPC: 1.85534 (Simulation time: 0 hr 1 min 14 sec) 
Heartbeat CPU  3 instructions:   11000000 cycles:    5658105 heartbeat IPC: 1.89078 cumulative IPC: 1.94411 (Simulation time: 0 hr 1 min 18 sec) 
Heartbeat CPU  2 instructions:   13000001 cycles:    5658688 heartbeat IPC: 3.27821 cumulative IPC: 2.29735 (Simulation time: 0 hr 1 min 18 sec) 
Heartbeat CPU  1 instructions:   11000001 cycles:    5719468 heartbeat IPC: 1.87522 cumulative IPC: 1.92326 (Simulation time: 0 hr 1 min 19 sec) 
Heartbeat CPU  0 instructions:   11000002 cycles:    5929839 heartbeat IPC: 1.85184 cumulative IPC: 1.85503 (Simulation time: 0 hr 1 min 22 sec) 
Heartbeat CPU  2 instructions:   14000000 cycles:    5964175 heartbeat IPC: 3.27346 cumulative IPC: 2.34735 (Simulation time: 0 hr 1 min 23 sec) 
Heartbeat CPU  3 instructions:   12000000 cycles:    6146446 heartbeat IPC: 2.04775 cumulative IPC: 1.95235 (Simulation time: 0 hr 1 min 26 sec) 
Heartbeat CPU  1 instructions:   12000000 cycles:    6189738 heartbeat IPC: 2.12644 cumulative IPC: 1.93869 (Simulation time: 0 hr 1 min 27 sec) 
Heartbeat CPU  2 instructions:   15000003 cycles:    6269102 heartbeat IPC: 3.27948 cumulative IPC: 2.39269 (Simulation time: 0 hr 1 min 28 sec) 
Heartbeat CPU  0 instructions:   12000000 cycles:    6426285 heartbeat IPC: 2.01431 cumulative IPC: 1.86733 (Simulation time: 0 hr 1 min 30 sec) 
Heartbeat CPU  2 instructions:   16000000 cycles:    6569123 heartbeat IPC: 3.33309 cumulative IPC: 2.43564 (Simulation time: 0 hr 1 min 33 sec) 
Heartbeat CPU  3 instructions:   13000000 cycles:    6632028 heartbeat IPC: 2.05938 cumulative IPC: 1.96018 (Simulation time: 0 hr 1 min 34 sec) 
Heartbeat CPU  1 instructions:   13000002 cycles:    6669025 heartbeat IPC: 2.08644 cumulative IPC: 1.94931 (Simulation time: 0 hr 1 min 34 sec) 
Heartbeat CPU  2 instructions:   17000000 cycles:    6867248 heartbeat IPC: 3.35430 cumulative IPC: 2.47552 (Simulation time: 0 hr 1 min 38 sec) 
Heartbeat CPU  0 instructions:   13000001 cycles:    6921367 heartbeat IPC: 2.01987 cumulative IPC: 1.87824 (Simulation time: 0 hr 1 min 39 sec) 
Heartbeat CPU  3 instructions:   14000000 cycles:    7096778 heartbeat IPC: 2.15169 cumulative IPC: 1.97273 (Simulation time: 0 hr 1 min 42 sec) 
Heartbeat CPU  1 instructions:   14000000 cycles:    7121384 heartbeat IPC: 2.21063 cumulative IPC: 1.96591 (Simulation time: 0 hr 1 min 42 sec) 
Heartbeat CPU  2 instructions:   18000000 cycles:    7163018 heartbeat IPC: 3.38101 cumulative IPC: 2.51291 (Simulation time: 0 hr 1 min 43 sec) 
Heartbeat CPU  0 instructions:   14000002 cycles:    7397773 heartbeat IPC: 2.09905 cumulative IPC: 1.89246 (Simulation time: 0 hr 1 min 47 sec) 
Heartbeat CPU  2 instructions:   19000001 cycles:    7459839 heartbeat IPC: 3.36904 cumulative IPC: 2.54697 (Simulation time: 0 hr 1 min 48 sec) 
Heartbeat CPU  1 instructions:   15000001 cycles:    7591716 heartbeat IPC: 2.12616 cumulative IPC: 1.97584 (Simulation time: 0 hr 1 min 50 sec) 
Heartbeat CPU  3 instructions:   15000000 cycles:    7612080 heartbeat IPC: 1.94061 cumulative IPC: 1.97055 (Simulation time: 0 hr 1 min 51 sec) 
Heartbeat CPU  2 instructions:   20000000 cycles:    7756661 heartbeat IPC: 3.36902 cumulative IPC: 2.57843 (Simulation time: 0 hr 1 min 53 sec) 
Heartbeat CPU  0 instructions:   15000002 cycles:    7875202 heartbeat IPC: 2.09455 cumulative IPC: 1.90471 (Simulation time: 0 hr 1 min 55 sec) 
Heartbeat CPU  2 instructions:   21000002 cycles:    8053769 heartbeat IPC: 3.36579 cumulative IPC: 2.60748 (Simulation time: 0 hr 1 min 58 sec) 
Heartbeat CPU  1 instructions:   16000000 cycles:    8066970 heartbeat IPC: 2.10414 cumulative IPC: 1.98340 (Simulation time: 0 hr 1 min 58 sec) 
Heartbeat CPU  3 instructions:   16000000 cycles:    8093134 heartbeat IPC: 2.07877 cumulative IPC: 1.97698 (Simulation time: 0 hr 1 min 59 sec) 
Heartbeat CPU  0 instructions:   16000000 cycles:    8341214 heartbeat IPC: 2.14586 cumulative IPC: 1.91819 (Simulation time: 0 hr 2 min 3 sec) 
Heartbeat CPU  2 instructions:   22000000 cycles:    8368880 heartbeat IPC: 3.17348 cumulative IPC: 2.62879 (Simulation time: 0 hr 2 min 3 sec) 
Heartbeat CPU  1 instructions:   17000002 cycles:    8549579 heartbeat IPC: 2.07207 cumulative IPC: 1.98840 (Simulation time: 0 hr 2 min 7 sec) 
Heartbeat CPU  3 instructions:   17000000 cycles:    8571619 heartbeat IPC: 2.08993 cumulative IPC: 1.98329 (Simulation time: 0 hr 2 min 7 sec) 
Heartbeat CPU  2 instructions:   23000000 cycles:    8666051 heartbeat IPC: 3.36507 cumulative IPC: 2.65403 (Simulation time: 0 hr 2 min 8 sec) 
Heartbeat CPU  0 instructions:   17000000 cycles:    8834344 heartbeat IPC: 2.02786 cumulative IPC: 1.92431 (Simulation time: 0 hr 2 min 11 sec) 
Heartbeat CPU  2 instructions:   24000000 cycles:    8967357 heartbeat IPC: 3.31889 cumulative IPC: 2.67637 (Simulation time: 0 hr 2 min 13 sec) 
Heartbeat CPU  1 instructions:   18000000 cycles:    9067699 heartbeat IPC: 1.93005 cumulative IPC: 1.98507 (Simulation time: 0 hr 2 min 15 sec) 
Heartbeat CPU  3 instructions:   18000000 cycles:    9080329 heartbeat IPC: 1.96576 cumulative IPC: 1.98231 (Simulation time: 0 hr 2 min 15 sec) 
Heartbeat CPU  0 instructions:   18000002 cycles:    9284488 heartbeat IPC: 2.22152 cumulative IPC: 1.93872 (Simulation time: 0 hr 2 min 19 sec) 
Heartbeat CPU  2 instructions:   25000000 cycles:    9286408 heartbeat IPC: 3.13430 cumulative IPC: 2.69211 (Simulation time: 0 hr 2 min 19 sec) 
Heartbeat CPU  1 instructions:   19000000 cycles:    9576674 heartbeat IPC: 1.96473 cumulative IPC: 1.98399 (Simulation time: 0 hr 2 min 23 sec) 
Heartbeat CPU  2 instructions:   26000001 cycles:    9580147 heartbeat IPC: 3.40439 cumulative IPC: 2.71395 (Simulation time: 0 hr 2 min 23 sec) 
Heartbeat CPU  3 instructions:   19000003 cycles:    9589802 heartbeat IPC: 1.96282 cumulative IPC: 1.98127 (Simulation time: 0 hr 2 min 24 sec) 
Heartbeat CPU  0 instructions:   19000001 cycles:    9723735 heartbeat IPC: 2.27662 cumulative IPC: 1.95398 (Simulation time: 0 hr 2 min 26 sec) 
Heartbeat CPU  2 instructions:   27000003 cycles:    9876181 heartbeat IPC: 3.37800 cumulative IPC: 2.73385 (Simulation time: 0 hr 2 min 28 sec) 
Heartbeat CPU  1 instructions:   20000000 cycles:   10059794 heartbeat IPC: 2.06988 cumulative IPC: 1.98811 (Simulation time: 0 hr 2 min 31 sec) 
Heartbeat CPU  3 instructions:   20000000 cycles:   10093072 heartbeat IPC: 1.98700 cumulative IPC: 1.98156 (Simulation time: 0 hr 2 min 32 sec) 
Heartbeat CPU  2 instructions:   28000000 cycles:   10174325 heartbeat IPC: 3.35407 cumulative IPC: 2.75203 (Simulation time: 0 hr 2 min 33 sec) 
Heartbeat CPU  0 instructions:   20000000 cycles:   10236776 heartbeat IPC: 1.94916 cumulative IPC: 1.95374 (Simulation time: 0 hr 2 min 34 sec) 
Heartbeat CPU  2 instructions:   29000003 cycles:   10471128 heartbeat IPC: 3.36925 cumulative IPC: 2.76952 (Simulation time: 0 hr 2 min 38 sec) 
Heartbeat CPU  1 instructions:   21000001 cycles:   10557602 heartbeat IPC: 2.00881 cumulative IPC: 1.98909 (Simulation time: 0 hr 2 min 39 sec) 
Heartbeat CPU  3 instructions:   21000001 cycles:   10577681 heartbeat IPC: 2.06352 cumulative IPC: 1.98531 (Simulation time: 0 hr 2 min 40 sec) 
Heartbeat CPU  0 instructions:   21000001 cycles:   10730496 heartbeat IPC: 2.02544 cumulative IPC: 1.95704 (Simulation time: 0 hr 2 min 42 sec) 
Heartbeat CPU  2 instructions:   30000000 cycles:   10764395 heartbeat IPC: 3.40985 cumulative IPC: 2.78697 (Simulation time: 0 hr 2 min 43 sec) 
Heartbeat CPU  1 instructions:   22000000 cycles:   11032804 heartbeat IPC: 2.10437 cumulative IPC: 1.99405 (Simulation time: 0 hr 2 min 48 sec) 
Heartbeat CPU  2 instructions:   31000001 cycles:   11060746 heartbeat IPC: 3.37438 cumulative IPC: 2.80270 (Simulation time: 0 hr 2 min 48 sec) 
Heartbeat CPU  3 instructions:   22000002 cycles:   11069517 heartbeat IPC: 2.03320 cumulative IPC: 1.98744 (Simulation time: 0 hr 2 min 48 sec) 
Heartbeat CPU  0 instructions:   22000000 cycles:   11213549 heartbeat IPC: 2.07016 cumulative IPC: 1.96191 (Simulation time: 0 hr 2 min 51 sec) 
Heartbeat CPU  2 instructions:   32000000 cycles:   11358075 heartbeat IPC: 3.36327 cumulative IPC: 2.81738 (Simulation time: 0 hr 2 min 53 sec) 
Heartbeat CPU  1 instructions:   23000002 cycles:   11497519 heartbeat IPC: 2.15186 cumulative IPC: 2.00043 (Simulation time: 0 hr 2 min 56 sec) 
Heartbeat CPU  3 instructions:   23000002 cycles:   11565176 heartbeat IPC: 2.01752 cumulative IPC: 1.98873 (Simulation time: 0 hr 2 min 57 sec) 
Heartbeat CPU  2 instructions:   33000001 cycles:   11655285 heartbeat IPC: 3.36463 cumulative IPC: 2.83133 (Simulation time: 0 hr 2 min 58 sec) 
Heartbeat CPU  0 instructions:   23000000 cycles:   11672898 heartbeat IPC: 2.17699 cumulative IPC: 1.97038 (Simulation time: 0 hr 2 min 59 sec) 
Heartbeat CPU  2 instructions:   34000002 cycles:   11957013 heartbeat IPC: 3.31425 cumulative IPC: 2.84352 (Simulation time: 0 hr 3 min 3 sec) 
Heartbeat CPU  1 instructions:   24000000 cycles:   11977691 heartbeat IPC: 2.08258 cumulative IPC: 2.00373 (Simulation time: 0 hr 3 min 4 sec) 
Heartbeat CPU  3 instructions:   24000000 cycles:   12023131 heartbeat IPC: 2.18362 cumulative IPC: 1.99615 (Simulation time: 0 hr 3 min 5 sec) 
Heartbeat CPU  0 instructions:   24000000 cycles:   12132694 heartbeat IPC: 2.17488 cumulative IPC: 1.97813 (Simulation time: 0 hr 3 min 6 sec) 
Heartbeat CPU  2 instructions:   35000002 cycles:   12250889 heartbeat IPC: 3.40280 cumulative IPC: 2.85694 (Simulation time: 0 hr 3 min 8 sec) 
Heartbeat CPU  1 instructions:   25000003 cycles:   12453130 heartbeat IPC: 2.10333 cumulative IPC: 2.00753 (Simulation time: 0 hr 3 min 12 sec) 
Heartbeat CPU  3 instructions:   25000000 cycles:   12487959 heartbeat IPC: 2.15133 cumulative IPC: 2.00193 (Simulation time: 0 hr 3 min 12 sec) 
Heartbeat CPU  2 instructions:   36000000 cycles:   12553225 heartbeat IPC: 3.30757 cumulative IPC: 2.86779 (Simulation time: 0 hr 3 min 13 sec) 
Heartbeat CPU  0 instructions:   25000003 cycles:   12605433 heartbeat IPC: 2.11534 cumulative IPC: 1.98327 (Simulation time: 0 hr 3 min 14 sec) 
Heartbeat CPU  1 instructions:   26000000 cycles:   12932892 heartbeat IPC: 2.08436 cumulative IPC: 2.01038 (Simulation time: 0 hr 3 min 19 sec) 
Heartbeat CPU  3 instructions:   26000003 cycles:   12976817 heartbeat IPC: 2.04559 cumulative IPC: 2.00357 (Simulation time: 0 hr 3 min 20 sec) 
Heartbeat CPU  2 instructions:   37000001 cycles:   13056368 heartbeat IPC: 1.98751 cumulative IPC: 2.83387 (Simulation time: 0 hr 3 min 21 sec) 
Heartbeat CPU  0 instructions:   26000000 cycles:   13087050 heartbeat IPC: 2.07633 cumulative IPC: 1.98670 (Simulation time: 0 hr 3 min 21 sec) 
Heartbeat CPU  1 instructions:   27000001 cycles:   13403170 heartbeat IPC: 2.12640 cumulative IPC: 2.01445 (Simulation time: 0 hr 3 min 25 sec) 
Heartbeat CPU  3 instructions:   27000001 cycles:   13477984 heartbeat IPC: 1.99534 cumulative IPC: 2.00327 (Simulation time: 0 hr 3 min 26 sec) 
Heartbeat CPU  0 instructions:   27000003 cycles:   13583454 heartbeat IPC: 2.01449 cumulative IPC: 1.98771 (Simulation time: 0 hr 3 min 28 sec) 
Heartbeat CPU  2 instructions:   38000003 cycles:   13649571 heartbeat IPC: 1.68577 cumulative IPC: 2.78397 (Simulation time: 0 hr 3 min 29 sec) 
Heartbeat CPU  1 instructions:   28000000 cycles:   13892260 heartbeat IPC: 2.04461 cumulative IPC: 2.01551 (Simulation time: 0 hr 3 min 32 sec) 
Heartbeat CPU  3 instructions:   28000000 cycles:   13972629 heartbeat IPC: 2.02165 cumulative IPC: 2.00392 (Simulation time: 0 hr 3 min 33 sec) 
Heartbeat CPU  0 instructions:   28000000 cycles:   14066788 heartbeat IPC: 2.06896 cumulative IPC: 1.99050 (Simulation time: 0 hr 3 min 35 sec) 
Heartbeat CPU  2 instructions:   39000002 cycles:   14179729 heartbeat IPC: 1.88623 cumulative IPC: 2.75041 (Simulation time: 0 hr 3 min 36 sec) 
Heartbeat CPU  1 instructions:   29000000 cycles:   14383208 heartbeat IPC: 2.03688 cumulative IPC: 2.01624 (Simulation time: 0 hr 3 min 39 sec) 
Heartbeat CPU  3 instructions:   29000000 cycles:   14474646 heartbeat IPC: 1.99196 cumulative IPC: 2.00350 (Simulation time: 0 hr 3 min 40 sec) 
Heartbeat CPU  0 instructions:   29000001 cycles:   14535206 heartbeat IPC: 2.13485 cumulative IPC: 1.99516 (Simulation time: 0 hr 3 min 41 sec) 
Heartbeat CPU  2 instructions:   40000000 cycles:   14703673 heartbeat IPC: 1.90860 cumulative IPC: 2.72041 (Simulation time: 0 hr 3 min 44 sec) 
Heartbeat CPU  1 instructions:   30000001 cycles:   14876236 heartbeat IPC: 2.02828 cumulative IPC: 2.01664 (Simulation time: 0 hr 3 min 46 sec) 
Heartbeat CPU  3 instructions:   30000001 cycles:   14943531 heartbeat IPC: 2.13272 cumulative IPC: 2.00756 (Simulation time: 0 hr 3 min 47 sec) 
Heartbeat CPU  0 instructions:   30000001 cycles:   15022367 heartbeat IPC: 2.05271 cumulative IPC: 1.99702 (Simulation time: 0 hr 3 min 48 sec) 
Heartbeat CPU  2 instructions:   41000001 cycles:   15290498 heartbeat IPC: 1.70409 cumulative IPC: 2.68140 (Simulation time: 0 hr 3 min 52 sec) 
Heartbeat CPU  1 instructions:   31000002 cycles:   15338863 heartbeat IPC: 2.16157 cumulative IPC: 2.02101 (Simulation time: 0 hr 3 min 53 sec) 
Heartbeat CPU  3 instructions:   31000001 cycles:   15393981 heartbeat IPC: 2.22000 cumulative IPC: 2.01377 (Simulation time: 0 hr 3 min 54 sec) 
Heartbeat CPU  0 instructions:   31000000 cycles:   15505679 heartbeat IPC: 2.06905 cumulative IPC: 1.99927 (Simulation time: 0 hr 3 min 55 sec) 
Heartbeat CPU  1 instructions:   32000000 cycles:   15824737 heartbeat IPC: 2.05814 cumulative IPC: 2.02215 (Simulation time: 0 hr 4 min 0 sec) 
Heartbeat CPU  3 instructions:   32000000 cycles:   15839813 heartbeat IPC: 2.24300 cumulative IPC: 2.02023 (Simulation time: 0 hr 4 min 0 sec) 
Heartbeat CPU  2 instructions:   42000000 cycles:   15867434 heartbeat IPC: 1.73329 cumulative IPC: 2.64693 (Simulation time: 0 hr 4 min 0 sec) 
Heartbeat CPU  0 instructions:   32000000 cycles:   15981901 heartbeat IPC: 2.09986 cumulative IPC: 2.00226 (Simulation time: 0 hr 4 min 2 sec) 
Heartbeat CPU  3 instructions:   33000003 cycles:   16290171 heartbeat IPC: 2.22046 cumulative IPC: 2.02576 (Simulation time: 0 hr 4 min 6 sec) 
Heartbeat CPU  1 instructions:   33000000 cycles:   16343805 heartbeat IPC: 1.92653 cumulative IPC: 2.01911 (Simulation time: 0 hr 4 min 7 sec) 
Heartbeat CPU  2 instructions:   43000001 cycles:   16447011 heartbeat IPC: 1.72540 cumulative IPC: 2.61446 (Simulation time: 0 hr 4 min 8 sec) 
Heartbeat CPU  0 instructions:   33000000 cycles:   16464613 heartbeat IPC: 2.07163 cumulative IPC: 2.00430 (Simulation time: 0 hr 4 min 9 sec) 
Heartbeat CPU  3 instructions:   34000003 cycles:   16777296 heartbeat IPC: 2.05286 cumulative IPC: 2.02655 (Simulation time: 0 hr 4 min 13 sec) 
Heartbeat CPU  1 instructions:   34000001 cycles:   16811319 heartbeat IPC: 2.13898 cumulative IPC: 2.02245 (Simulation time: 0 hr 4 min 13 sec) 
Heartbeat CPU  0 instructions:   34000003 cycles:   16966281 heartbeat IPC: 1.99336 cumulative IPC: 2.00397 (Simulation time: 0 hr 4 min 15 sec) 
Heartbeat CPU  2 instructions:   44000000 cycles:   17068820 heartbeat IPC: 1.60821 cumulative IPC: 2.57780 (Simulation time: 0 hr 4 min 17 sec) 
Heartbeat CPU  3 instructions:   35000003 cycles:   17254537 heartbeat IPC: 2.09538 cumulative IPC: 2.02845 (Simulation time: 0 hr 4 min 19 sec) 
Heartbeat CPU  1 instructions:   35000000 cycles:   17296292 heartbeat IPC: 2.06197 cumulative IPC: 2.02356 (Simulation time: 0 hr 4 min 20 sec) 
Heartbeat CPU  0 instructions:   35000000 cycles:   17443137 heartbeat IPC: 2.09706 cumulative IPC: 2.00652 (Simulation time: 0 hr 4 min 22 sec) 
Heartbeat CPU  2 instructions:   45000003 cycles:   17653154 heartbeat IPC: 1.71136 cumulative IPC: 2.54912 (Simulation time: 0 hr 4 min 25 sec) 
Heartbeat CPU  3 instructions:   36000000 cycles:   17727661 heartbeat IPC: 2.11360 cumulative IPC: 2.03072 (Simulation time: 0 hr 4 min 26 sec) 
Heartbeat CPU  1 instructions:   36000000 cycles:   17777026 heartbeat IPC: 2.08015 cumulative IPC: 2.02509 (Simulation time: 0 hr 4 min 27 sec) 
Heartbeat CPU  0 instructions:   36000000 cycles:   17906341 heartbeat IPC: 2.15888 cumulative IPC: 2.01046 (Simulation time: 0 hr 4 min 29 sec) 
Heartbeat CPU  3 instructions:   37000001 cycles:   18211508 heartbeat IPC: 2.06677 cumulative IPC: 2.03168 (Simulation time: 0 hr 4 min 33 sec) 
Heartbeat CPU  2 instructions:   46000001 cycles:   18233670 heartbeat IPC: 1.72260 cumulative IPC: 2.52281 (Simulation time: 0 hr 4 min 33 sec) 
Heartbeat CPU  1 instructions:   37000001 cycles:   18265952 heartbeat IPC: 2.04530 cumulative IPC: 2.02563 (Simulation time: 0 hr 4 min 34 sec) 
Heartbeat CPU  0 instructions:   37000003 cycles:   18407690 heartbeat IPC: 1.99462 cumulative IPC: 2.01003 (Simulation time: 0 hr 4 min 36 sec) 
Heartbeat CPU  3 instructions:   38000000 cycles:   18737658 heartbeat IPC: 1.90060 cumulative IPC: 2.02800 (Simulation time: 0 hr 4 min 40 sec) 
Heartbeat CPU  1 instructions:   38000000 cycles:   18799886 heartbeat IPC: 1.87289 cumulative IPC: 2.02129 (Simulation time: 0 hr 4 min 41 sec) 
Heartbeat CPU  2 instructions:   47000001 cycles:   18800481 heartbeat IPC: 1.76426 cumulative IPC: 2.49994 (Simulation time: 0 hr 4 min 41 sec) 
Heartbeat CPU  0 instructions:   38000002 cycles:   18924979 heartbeat IPC: 1.93315 cumulative IPC: 2.00793 (Simulation time: 0 hr 4 min 42 sec) 
Heartbeat CPU  3 instructions:   39000003 cycles:   19278379 heartbeat IPC: 1.84939 cumulative IPC: 2.02299 (Simulation time: 0 hr 4 min 47 sec) 
Heartbeat CPU  1 instructions:   39000003 cycles:   19316115 heartbeat IPC: 1.93713 cumulative IPC: 2.01904 (Simulation time: 0 hr 4 min 47 sec) 
Heartbeat CPU  2 instructions:   48000000 cycles:   19366165 heartbeat IPC: 1.76777 cumulative IPC: 2.47855 (Simulation time: 0 hr 4 min 48 sec) 
Heartbeat CPU  0 instructions:   39000003 cycles:   19448981 heartbeat IPC: 1.90839 cumulative IPC: 2.00525 (Simulation time: 0 hr 4 min 49 sec) 
Heartbeat CPU  1 instructions:   40000000 cycles:   19847276 heartbeat IPC: 1.88266 cumulative IPC: 2.01539 (Simulation time: 0 hr 4 min 54 sec) 
Heartbeat CPU  2 instructions:   49000001 cycles:   19943438 heartbeat IPC: 1.73228 cumulative IPC: 2.45695 (Simulation time: 0 hr 4 min 55 sec) 
Heartbeat CPU  3 instructions:   40000000 cycles:   19953067 heartbeat IPC: 1.48216 cumulative IPC: 2.00470 (Simulation time: 0 hr 4 min 55 sec) 
Heartbeat CPU  0 instructions:   40000000 cycles:   19970544 heartbeat IPC: 1.91731 cumulative IPC: 2.00295 (Simulation time: 0 hr 4 min 55 sec) 
Heartbeat CPU  1 instructions:   41000000 cycles:   20463007 heartbeat IPC: 1.62409 cumulative IPC: 2.00362 (Simulation time: 0 hr 5 min 1 sec) 
Heartbeat CPU  0 instructions:   41000002 cycles:   20492868 heartbeat IPC: 1.91452 cumulative IPC: 2.00070 (Simulation time: 0 hr 5 min 1 sec) 
Heartbeat CPU  2 instructions:   50000003 cycles:   20517585 heartbeat IPC: 1.74172 cumulative IPC: 2.43693 (Simulation time: 0 hr 5 min 2 sec) 
Heartbeat CPU  3 instructions:   41000000 cycles:   20598412 heartbeat IPC: 1.54956 cumulative IPC: 1.99044 (Simulation time: 0 hr 5 min 3 sec) 
Heartbeat CPU  1 instructions:   42000002 cycles:   20989347 heartbeat IPC: 1.89992 cumulative IPC: 2.00102 (Simulation time: 0 hr 5 min 7 sec) 
Heartbeat CPU  0 instructions:   42000001 cycles:   21017747 heartbeat IPC: 1.90520 cumulative IPC: 1.99831 (Simulation time: 0 hr 5 min 8 sec) 
Heartbeat CPU  2 instructions:   51000000 cycles:   21075698 heartbeat IPC: 1.79175 cumulative IPC: 0.04745 (Simulation time: 0 hr 5 min 9 sec) 
Heartbeat CPU  3 instructions:   42000003 cycles:   21204480 heartbeat IPC: 1.64998 cumulative IPC: 1.98071 (Simulation time: 0 hr 5 min 10 sec) 
Heartbeat CPU  1 instructions:   43000000 cycles:   21530945 heartbeat IPC: 1.84638 cumulative IPC: 1.99713 (Simulation time: 0 hr 5 min 14 sec) 
Heartbeat CPU  2 instructions:   52000000 cycles:   21631872 heartbeat IPC: 1.79800 cumulative IPC: 0.09246 (Simulation time: 0 hr 5 min 15 sec) 
Heartbeat CPU  0 instructions:   43000003 cycles:   21673020 heartbeat IPC: 1.52608 cumulative IPC: 1.98403 (Simulation time: 0 hr 5 min 15 sec) 
Heartbeat CPU  3 instructions:   43000002 cycles:   21756114 heartbeat IPC: 1.81279 cumulative IPC: 1.97646 (Simulation time: 0 hr 5 min 17 sec) 
Heartbeat CPU  1 instructions:   44000000 cycles:   22086684 heartbeat IPC: 1.79941 cumulative IPC: 1.99215 (Simulation time: 0 hr 5 min 21 sec) 
Heartbeat CPU  0 instructions:   44000000 cycles:   22195680 heartbeat IPC: 1.91328 cumulative IPC: 1.98237 (Simulation time: 0 hr 5 min 22 sec) 
Heartbeat CPU  2 instructions:   53000001 cycles:   22198100 heartbeat IPC: 1.76607 cumulative IPC: 0.13515 (Simulation time: 0 hr 5 min 22 sec) 
Heartbeat CPU  3 instructions:   44000000 cycles:   22299224 heartbeat IPC: 1.84124 cumulative IPC: 1.97316 (Simulation time: 0 hr 5 min 23 sec) 
Heartbeat CPU  1 instructions:   45000000 cycles:   22643389 heartbeat IPC: 1.79628 cumulative IPC: 1.98733 (Simulation time: 0 hr 5 min 27 sec) 
Heartbeat CPU  2 instructions:   54000000 cycles:   22753371 heartbeat IPC: 1.80092 cumulative IPC: 0.17580 (Simulation time: 0 hr 5 min 29 sec) 
Heartbeat CPU  3 instructions:   45000001 cycles:   22823744 heartbeat IPC: 1.90651 cumulative IPC: 1.97163 (Simulation time: 0 hr 5 min 30 sec) 
Heartbeat CPU  0 instructions:   45000000 cycles:   22876924 heartbeat IPC: 1.46790 cumulative IPC: 1.96705 (Simulation time: 0 hr 5 min 30 sec) 
Heartbeat CPU  1 instructions:   46000002 cycles:   23155670 heartbeat IPC: 1.95206 cumulative IPC: 1.98655 (Simulation time: 0 hr 5 min 34 sec) 
Heartbeat CPU  2 instructions:   55000002 cycles:   23327422 heartbeat IPC: 1.74201 cumulative IPC: 0.21434 (Simulation time: 0 hr 5 min 36 sec) 
Heartbeat CPU  3 instructions:   46000000 cycles:   23339772 heartbeat IPC: 1.93788 cumulative IPC: 1.97088 (Simulation time: 0 hr 5 min 36 sec) 
Heartbeat CPU  0 instructions:   46000000 cycles:   23490773 heartbeat IPC: 1.62907 cumulative IPC: 1.95822 (Simulation time: 0 hr 5 min 38 sec) 
Heartbeat CPU  1 instructions:   47000001 cycles:   23669546 heartbeat IPC: 1.94599 cumulative IPC: 1.98567 (Simulation time: 0 hr 5 min 40 sec) 
Heartbeat CPU  2 instructions:   56000000 cycles:   23861965 heartbeat IPC: 1.87075 cumulative IPC: 0.25145 (Simulation time: 0 hr 5 min 43 sec) 
Heartbeat CPU  3 instructions:   47000002 cycles:   23886168 heartbeat IPC: 1.83018 cumulative IPC: 1.96767 (Simulation time: 0 hr 5 min 43 sec) 
Heartbeat CPU  0 instructions:   47000000 cycles:   23998341 heartbeat IPC: 1.97018 cumulative IPC: 1.95847 (Simulation time: 0 hr 5 min 45 sec) 
Heartbeat CPU  2 instructions:   57000001 cycles:   24174182 heartbeat IPC: 3.20290 cumulative IPC: 0.28957 (Simulation time: 0 hr 5 min 47 sec) 
Heartbeat CPU  1 instructions:   48000000 cycles:   24175925 heartbeat IPC: 1.97480 cumulative IPC: 1.98545 (Simulation time: 0 hr 5 min 47 sec) 
Heartbeat CPU  3 instructions:   48000000 cycles:   24421476 heartbeat IPC: 1.86808 cumulative IPC: 1.96548 (Simulation time: 0 hr 5 min 51 sec) 
Heartbeat CPU  0 instructions:   48000000 cycles:   24523417 heartbeat IPC: 1.90449 cumulative IPC: 1.95731 (Simulation time: 0 hr 5 min 52 sec) 
Heartbeat CPU  2 instructions:   58000001 cycles:   24543204 heartbeat IPC: 2.70987 cumulative IPC: 0.32596 (Simulation time: 0 hr 5 min 53 sec) 
Heartbeat CPU  1 instructions:   49000001 cycles:   24694808 heartbeat IPC: 1.92722 cumulative IPC: 1.98422 (Simulation time: 0 hr 5 min 55 sec) 
Heartbeat CPU  3 instructions:   49000003 cycles:   24961901 heartbeat IPC: 1.85040 cumulative IPC: 1.96299 (Simulation time: 0 hr 5 min 58 sec) 
Heartbeat CPU  0 instructions:   49000003 cycles:   25038033 heartbeat IPC: 1.94320 cumulative IPC: 1.95702 (Simulation time: 0 hr 5 min 59 sec) 
Heartbeat CPU  2 instructions:   59000002 cycles:   25120540 heartbeat IPC: 1.73210 cumulative IPC: 0.35827 (Simulation time: 0 hr 6 min 0 sec) 
Heartbeat CPU  1 instructions:   50000000 cycles:   25234318 heartbeat IPC: 1.85353 cumulative IPC: 1.98143 (Simulation time: 0 hr 6 min 1 sec) 
Heartbeat CPU  3 instructions:   50000000 cycles:   25506329 heartbeat IPC: 1.83678 cumulative IPC: 1.96030 (Simulation time: 0 hr 6 min 5 sec) 
Heartbeat CPU  0 instructions:   50000003 cycles:   25577980 heartbeat IPC: 1.85203 cumulative IPC: 1.95481 (Simulation time: 0 hr 6 min 6 sec) 

Warmup complete CPU  0 instructions:   50000003 cycles:   25577980 (Simulation time: 0 hr 6 min 6 sec) 
Warmup complete CPU  1 instructions:   50607625 cycles:   25577979 (Simulation time: 0 hr 6 min 6 sec) 
Warmup complete CPU  2 instructions:   59832283 cycles:   25577980 (Simulation time: 0 hr 6 min 6 sec) 
Warmup complete CPU  3 instructions:   50148214 cycles:   25577980 (Simulation time: 0 hr 6 min 6 sec) 

Heartbeat CPU  2 instructions:   60000000 cycles:   26581665 heartbeat IPC: 0.68440 cumulative IPC: 0.16710 (Simulation time: 0 hr 6 min 8 sec) 
Heartbeat CPU  1 instructions:   51000000 cycles:   27362457 heartbeat IPC: 0.46989 cumulative IPC: 0.21988 (Simulation time: 0 hr 6 min 9 sec) 
Heartbeat CPU  3 instructions:   51000000 cycles:   29589143 heartbeat IPC: 0.24493 cumulative IPC: 0.21235 (Simulation time: 0 hr 6 min 13 sec) 
Heartbeat CPU  0 instructions:   51000001 cycles:   30297386 heartbeat IPC: 0.21189 cumulative IPC: 0.21189 (Simulation time: 0 hr 6 min 15 sec) 
Heartbeat CPU  1 instructions:   52000000 cycles:   32097081 heartbeat IPC: 0.21121 cumulative IPC: 0.21358 (Simulation time: 0 hr 6 min 18 sec) 
Heartbeat CPU  2 instructions:   61000000 cycles:   32322987 heartbeat IPC: 0.17418 cumulative IPC: 0.17312 (Simulation time: 0 hr 6 min 19 sec) 
Heartbeat CPU  3 instructions:   52000000 cycles:   34378753 heartbeat IPC: 0.20879 cumulative IPC: 0.21041 (Simulation time: 0 hr 6 min 23 sec) 
Heartbeat CPU  0 instructions:   52000000 cycles:   34948870 heartbeat IPC: 0.21498 cumulative IPC: 0.21343 (Simulation time: 0 hr 6 min 24 sec) 
Heartbeat CPU  2 instructions:   62000002 cycles:   35547878 heartbeat IPC: 0.31009 cumulative IPC: 0.21743 (Simulation time: 0 hr 6 min 26 sec) 
Heartbeat CPU  1 instructions:   53000002 cycles:   36794101 heartbeat IPC: 0.21290 cumulative IPC: 0.21330 (Simulation time: 0 hr 6 min 29 sec) 
Heartbeat CPU  2 instructions:   63000003 cycles:   36945316 heartbeat IPC: 0.71560 cumulative IPC: 0.27867 (Simulation time: 0 hr 6 min 29 sec) 
Heartbeat CPU  2 instructions:   64000000 cycles:   38318819 heartbeat IPC: 0.72806 cumulative IPC: 0.32711 (Simulation time: 0 hr 6 min 33 sec) 
Heartbeat CPU  3 instructions:   53000003 cycles:   39122239 heartbeat IPC: 0.21082 cumulative IPC: 0.21055 (Simulation time: 0 hr 6 min 35 sec) 
Heartbeat CPU  0 instructions:   53000001 cycles:   39679724 heartbeat IPC: 0.21138 cumulative IPC: 0.21274 (Simulation time: 0 hr 6 min 36 sec) 
Heartbeat CPU  2 instructions:   65000003 cycles:   39895579 heartbeat IPC: 0.63421 cumulative IPC: 0.36093 (Simulation time: 0 hr 6 min 37 sec) 
Heartbeat CPU  2 instructions:   66000001 cycles:   41108517 heartbeat IPC: 0.82444 cumulative IPC: 0.39713 (Simulation time: 0 hr 6 min 40 sec) 
Heartbeat CPU  1 instructions:   54000002 cycles:   41493252 heartbeat IPC: 0.21280 cumulative IPC: 0.21315 (Simulation time: 0 hr 6 min 42 sec) 
Heartbeat CPU  2 instructions:   67000002 cycles:   42092891 heartbeat IPC: 1.01588 cumulative IPC: 0.43402 (Simulation time: 0 hr 6 min 43 sec) 
Heartbeat CPU  2 instructions:   68000000 cycles:   43026850 heartbeat IPC: 1.07071 cumulative IPC: 0.46809 (Simulation time: 0 hr 6 min 46 sec) 
Heartbeat CPU  3 instructions:   54000000 cycles:   43838253 heartbeat IPC: 0.21204 cumulative IPC: 0.21094 (Simulation time: 0 hr 6 min 49 sec) 
Heartbeat CPU  2 instructions:   69000000 cycles:   44313916 heartbeat IPC: 0.77696 cumulative IPC: 0.48931 (Simulation time: 0 hr 6 min 50 sec) 
Heartbeat CPU  0 instructions:   54000001 cycles:   44347647 heartbeat IPC: 0.21423 cumulative IPC: 0.21311 (Simulation time: 0 hr 6 min 50 sec) 
Heartbeat CPU  2 instructions:   70000001 cycles:   45883172 heartbeat IPC: 0.63725 cumulative IPC: 0.50074 (Simulation time: 0 hr 6 min 54 sec) 
Heartbeat CPU  1 instructions:   55000002 cycles:   46224145 heartbeat IPC: 0.21138 cumulative IPC: 0.21275 (Simulation time: 0 hr 6 min 55 sec) 
Heartbeat CPU  2 instructions:   71000002 cycles:   47705943 heartbeat IPC: 0.54862 cumulative IPC: 0.50469 (Simulation time: 0 hr 6 min 58 sec) 
Heartbeat CPU  3 instructions:   55000001 cycles:   48581047 heartbeat IPC: 0.21085 cumulative IPC: 0.21092 (Simulation time: 0 hr 7 min 1 sec) 
Heartbeat CPU  0 instructions:   55000000 cycles:   48985609 heartbeat IPC: 0.21561 cumulative IPC: 0.21361 (Simulation time: 0 hr 7 min 2 sec) 
Heartbeat CPU  2 instructions:   72000000 cycles:   49490610 heartbeat IPC: 0.56033 cumulative IPC: 0.50884 (Simulation time: 0 hr 7 min 3 sec) 
Heartbeat CPU  1 instructions:   56000000 cycles:   51020364 heartbeat IPC: 0.20850 cumulative IPC: 0.21194 (Simulation time: 0 hr 7 min 7 sec) 
Heartbeat CPU  2 instructions:   73000002 cycles:   51312521 heartbeat IPC: 0.54888 cumulative IPC: 0.51167 (Simulation time: 0 hr 7 min 7 sec) 
Heartbeat CPU  2 instructions:   74000000 cycles:   52823589 heartbeat IPC: 0.66178 cumulative IPC: 0.52000 (Simulation time: 0 hr 7 min 11 sec) 
Heartbeat CPU  3 instructions:   56000000 cycles:   53234168 heartbeat IPC: 0.21491 cumulative IPC: 0.21159 (Simulation time: 0 hr 7 min 12 sec) 
Heartbeat CPU  0 instructions:   56000000 cycles:   53701360 heartbeat IPC: 0.21206 cumulative IPC: 0.21335 (Simulation time: 0 hr 7 min 13 sec) 
Heartbeat CPU  2 instructions:   75000001 cycles:   54693116 heartbeat IPC: 0.53490 cumulative IPC: 0.52096 (Simulation time: 0 hr 7 min 16 sec) 
Heartbeat CPU  1 instructions:   57000001 cycles:   55725734 heartbeat IPC: 0.21252 cumulative IPC: 0.21203 (Simulation time: 0 hr 7 min 18 sec) 
Heartbeat CPU  3 instructions:   57000000 cycles:   57728553 heartbeat IPC: 0.22250 cumulative IPC: 0.21312 (Simulation time: 0 hr 7 min 22 sec) 
Heartbeat CPU  0 instructions:   57000001 cycles:   58377149 heartbeat IPC: 0.21387 cumulative IPC: 0.21342 (Simulation time: 0 hr 7 min 23 sec) 
Heartbeat CPU  1 instructions:   58000001 cycles:   60416343 heartbeat IPC: 0.21319 cumulative IPC: 0.21219 (Simulation time: 0 hr 7 min 27 sec) 
Heartbeat CPU  2 instructions:   76000000 cycles:   60696182 heartbeat IPC: 0.16658 cumulative IPC: 0.46038 (Simulation time: 0 hr 7 min 27 sec) 
Heartbeat CPU  3 instructions:   58000001 cycles:   62390269 heartbeat IPC: 0.21451 cumulative IPC: 0.21329 (Simulation time: 0 hr 7 min 31 sec) 
Heartbeat CPU  0 instructions:   58000003 cycles:   62960866 heartbeat IPC: 0.21816 cumulative IPC: 0.21400 (Simulation time: 0 hr 7 min 32 sec) 
Heartbeat CPU  1 instructions:   59000002 cycles:   65017376 heartbeat IPC: 0.21734 cumulative IPC: 0.21279 (Simulation time: 0 hr 7 min 36 sec) 
Heartbeat CPU  2 instructions:   77000001 cycles:   66598486 heartbeat IPC: 0.16943 cumulative IPC: 0.41852 (Simulation time: 0 hr 7 min 39 sec) 
Heartbeat CPU  3 instructions:   59000003 cycles:   67132188 heartbeat IPC: 0.21089 cumulative IPC: 0.21302 (Simulation time: 0 hr 7 min 40 sec) 
Heartbeat CPU  0 instructions:   59000002 cycles:   67626577 heartbeat IPC: 0.21433 cumulative IPC: 0.21404 (Simulation time: 0 hr 7 min 41 sec) 
Heartbeat CPU  1 instructions:   60000000 cycles:   69823412 heartbeat IPC: 0.20807 cumulative IPC: 0.21228 (Simulation time: 0 hr 7 min 45 sec) 
Heartbeat CPU  3 instructions:   60000000 cycles:   71854828 heartbeat IPC: 0.21175 cumulative IPC: 0.21289 (Simulation time: 0 hr 7 min 49 sec) 
Heartbeat CPU  0 instructions:   60000000 cycles:   72282037 heartbeat IPC: 0.21480 cumulative IPC: 0.21411 (Simulation time: 0 hr 7 min 50 sec) 
Heartbeat CPU  2 instructions:   78000003 cycles:   72384191 heartbeat IPC: 0.17284 cumulative IPC: 0.38815 (Simulation time: 0 hr 7 min 50 sec) 
Heartbeat CPU  1 instructions:   61000003 cycles:   74507327 heartbeat IPC: 0.21350 cumulative IPC: 0.21240 (Simulation time: 0 hr 7 min 54 sec) 
Heartbeat CPU  3 instructions:   61000003 cycles:   76672034 heartbeat IPC: 0.20759 cumulative IPC: 0.21239 (Simulation time: 0 hr 7 min 58 sec) 
Heartbeat CPU  0 instructions:   61000001 cycles:   77036638 heartbeat IPC: 0.21032 cumulative IPC: 0.21376 (Simulation time: 0 hr 7 min 59 sec) 
Heartbeat CPU  2 instructions:   79000000 cycles:   78272555 heartbeat IPC: 0.16983 cumulative IPC: 0.36375 (Simulation time: 0 hr 8 min 1 sec) 
Heartbeat CPU  1 instructions:   62000002 cycles:   79187671 heartbeat IPC: 0.21366 cumulative IPC: 0.21251 (Simulation time: 0 hr 8 min 3 sec) 
Heartbeat CPU  3 instructions:   62000002 cycles:   81327161 heartbeat IPC: 0.21482 cumulative IPC: 0.21259 (Simulation time: 0 hr 8 min 7 sec) 
Heartbeat CPU  0 instructions:   62000001 cycles:   81657075 heartbeat IPC: 0.21643 cumulative IPC: 0.21398 (Simulation time: 0 hr 8 min 7 sec) 
Heartbeat CPU  0 instructions:   63000001 cycles:   82517036 heartbeat IPC: 1.16284 cumulative IPC: 0.22831 (Simulation time: 0 hr 8 min 10 sec) 
Heartbeat CPU  0 instructions:   64000000 cycles:   83060361 heartbeat IPC: 1.84052 cumulative IPC: 0.24355 (Simulation time: 0 hr 8 min 12 sec) 
Heartbeat CPU  0 instructions:   65000000 cycles:   83686845 heartbeat IPC: 1.59621 cumulative IPC: 0.25814 (Simulation time: 0 hr 8 min 15 sec) 
Heartbeat CPU  1 instructions:   63000003 cycles:   83873051 heartbeat IPC: 0.21343 cumulative IPC: 0.21258 (Simulation time: 0 hr 8 min 16 sec) 
Heartbeat CPU  2 instructions:   80000000 cycles:   84117304 heartbeat IPC: 0.17109 cumulative IPC: 0.34452 (Simulation time: 0 hr 8 min 16 sec) 
Heartbeat CPU  0 instructions:   66000003 cycles:   84265734 heartbeat IPC: 1.72745 cumulative IPC: 0.27263 (Simulation time: 0 hr 8 min 17 sec) 
Heartbeat CPU  0 instructions:   67000001 cycles:   84796671 heartbeat IPC: 1.88346 cumulative IPC: 0.28707 (Simulation time: 0 hr 8 min 19 sec) 
Heartbeat CPU  0 instructions:   68000000 cycles:   85321776 heartbeat IPC: 1.90438 cumulative IPC: 0.30129 (Simulation time: 0 hr 8 min 21 sec) 
Heartbeat CPU  3 instructions:   63000001 cycles:   86006181 heartbeat IPC: 0.21372 cumulative IPC: 0.21268 (Simulation time: 0 hr 8 min 23 sec) 
Heartbeat CPU  1 instructions:   64000000 cycles:   88506921 heartbeat IPC: 0.21580 cumulative IPC: 0.21282 (Simulation time: 0 hr 8 min 28 sec) 
Heartbeat CPU  0 instructions:   69000003 cycles:   89345501 heartbeat IPC: 0.24853 cumulative IPC: 0.29796 (Simulation time: 0 hr 8 min 29 sec) 
Heartbeat CPU  2 instructions:   81000000 cycles:   90090312 heartbeat IPC: 0.16742 cumulative IPC: 0.32812 (Simulation time: 0 hr 8 min 31 sec) 
Heartbeat CPU  3 instructions:   64000000 cycles:   90587956 heartbeat IPC: 0.21826 cumulative IPC: 0.21307 (Simulation time: 0 hr 8 min 32 sec) 
Heartbeat CPU  1 instructions:   65000000 cycles:   93161874 heartbeat IPC: 0.21482 cumulative IPC: 0.21296 (Simulation time: 0 hr 8 min 37 sec) 
Heartbeat CPU  0 instructions:   70000001 cycles:   93983340 heartbeat IPC: 0.21562 cumulative IPC: 0.29237 (Simulation time: 0 hr 8 min 38 sec) 
Heartbeat CPU  3 instructions:   65000003 cycles:   95281164 heartbeat IPC: 0.21307 cumulative IPC: 0.21307 (Simulation time: 0 hr 8 min 41 sec) 
Heartbeat CPU  2 instructions:   82000000 cycles:   95983327 heartbeat IPC: 0.16969 cumulative IPC: 0.31486 (Simulation time: 0 hr 8 min 43 sec) 
Heartbeat CPU  1 instructions:   66000002 cycles:   96011992 heartbeat IPC: 0.35086 cumulative IPC: 0.21854 (Simulation time: 0 hr 8 min 43 sec) 
Heartbeat CPU  1 instructions:   67000003 cycles:   96556315 heartbeat IPC: 1.83715 cumulative IPC: 0.23095 (Simulation time: 0 hr 8 min 45 sec) 
Heartbeat CPU  1 instructions:   68000000 cycles:   97092893 heartbeat IPC: 1.86366 cumulative IPC: 0.24320 (Simulation time: 0 hr 8 min 47 sec) 
Heartbeat CPU  1 instructions:   69000003 cycles:   97618111 heartbeat IPC: 1.90398 cumulative IPC: 0.25531 (Simulation time: 0 hr 8 min 49 sec) 
Heartbeat CPU  0 instructions:   71000000 cycles:   98519614 heartbeat IPC: 0.22045 cumulative IPC: 0.28790 (Simulation time: 0 hr 8 min 52 sec) 
Heartbeat CPU  3 instructions:   66000002 cycles:   99803818 heartbeat IPC: 0.22111 cumulative IPC: 0.21356 (Simulation time: 0 hr 8 min 54 sec) 
Heartbeat CPU  1 instructions:   70000001 cycles:  100019681 heartbeat IPC: 0.41639 cumulative IPC: 0.26050 (Simulation time: 0 hr 8 min 55 sec) 
Heartbeat CPU  2 instructions:   83000002 cycles:  101903465 heartbeat IPC: 0.16892 cumulative IPC: 0.30354 (Simulation time: 0 hr 8 min 58 sec) 
Heartbeat CPU  0 instructions:   72000000 cycles:  103058407 heartbeat IPC: 0.22032 cumulative IPC: 0.28394 (Simulation time: 0 hr 9 min 1 sec) 
Heartbeat CPU  3 instructions:   67000003 cycles:  104449890 heartbeat IPC: 0.21524 cumulative IPC: 0.21366 (Simulation time: 0 hr 9 min 3 sec) 
Heartbeat CPU  1 instructions:   71000000 cycles:  104642100 heartbeat IPC: 0.21634 cumulative IPC: 0.25792 (Simulation time: 0 hr 9 min 4 sec) 
Heartbeat CPU  2 instructions:   84000000 cycles:  106473873 heartbeat IPC: 0.21880 cumulative IPC: 0.29875 (Simulation time: 0 hr 9 min 7 sec) 
Heartbeat CPU  0 instructions:   73000001 cycles:  107700657 heartbeat IPC: 0.21541 cumulative IPC: 0.28007 (Simulation time: 0 hr 9 min 10 sec) 
Heartbeat CPU  3 instructions:   68000000 cycles:  108969685 heartbeat IPC: 0.22125 cumulative IPC: 0.21407 (Simulation time: 0 hr 9 min 12 sec) 
Heartbeat CPU  1 instructions:   72000000 cycles:  109247867 heartbeat IPC: 0.21712 cumulative IPC: 0.25568 (Simulation time: 0 hr 9 min 13 sec) 
Heartbeat CPU  0 instructions:   74000003 cycles:  110095050 heartbeat IPC: 0.41764 cumulative IPC: 0.28397 (Simulation time: 0 hr 9 min 15 sec) 
Heartbeat CPU  2 instructions:   85000000 cycles:  111052984 heartbeat IPC: 0.21838 cumulative IPC: 0.29445 (Simulation time: 0 hr 9 min 18 sec) 
Heartbeat CPU  0 instructions:   75000000 cycles:  113547713 heartbeat IPC: 0.28963 cumulative IPC: 0.28419 (Simulation time: 0 hr 9 min 22 sec) 
Heartbeat CPU  3 instructions:   69000001 cycles:  113651345 heartbeat IPC: 0.21360 cumulative IPC: 0.21405 (Simulation time: 0 hr 9 min 23 sec) 
Heartbeat CPU  1 instructions:   73000002 cycles:  113880025 heartbeat IPC: 0.21588 cumulative IPC: 0.25359 (Simulation time: 0 hr 9 min 23 sec) 
Heartbeat CPU  2 instructions:   86000001 cycles:  116824413 heartbeat IPC: 0.17327 cumulative IPC: 0.28678 (Simulation time: 0 hr 9 min 29 sec) 
Heartbeat CPU  3 instructions:   70000003 cycles:  118327044 heartbeat IPC: 0.21387 cumulative IPC: 0.21404 (Simulation time: 0 hr 9 min 32 sec) 
Heartbeat CPU  0 instructions:   76000000 cycles:  118333597 heartbeat IPC: 0.20895 cumulative IPC: 0.28031 (Simulation time: 0 hr 9 min 32 sec) 
Heartbeat CPU  1 instructions:   74000000 cycles:  118369665 heartbeat IPC: 0.22273 cumulative IPC: 0.25210 (Simulation time: 0 hr 9 min 32 sec) 
Heartbeat CPU  2 instructions:   87000002 cycles:  122777043 heartbeat IPC: 0.16799 cumulative IPC: 0.27951 (Simulation time: 0 hr 9 min 40 sec) 
Heartbeat CPU  3 instructions:   71000000 cycles:  122940600 heartbeat IPC: 0.21675 cumulative IPC: 0.21417 (Simulation time: 0 hr 9 min 41 sec) 
Heartbeat CPU  1 instructions:   75000000 cycles:  122993676 heartbeat IPC: 0.21626 cumulative IPC: 0.25039 (Simulation time: 0 hr 9 min 41 sec) 
Heartbeat CPU  0 instructions:   77000000 cycles:  123035822 heartbeat IPC: 0.21267 cumulative IPC: 0.27704 (Simulation time: 0 hr 9 min 41 sec) 
Heartbeat CPU  2 instructions:   88000000 cycles:  127561998 heartbeat IPC: 0.20899 cumulative IPC: 0.27620 (Simulation time: 0 hr 9 min 50 sec) 
Heartbeat CPU  3 instructions:   72000000 cycles:  127586915 heartbeat IPC: 0.21522 cumulative IPC: 0.21421 (Simulation time: 0 hr 9 min 50 sec) 
Heartbeat CPU  1 instructions:   76000000 cycles:  127607043 heartbeat IPC: 0.21676 cumulative IPC: 0.24887 (Simulation time: 0 hr 9 min 50 sec) 
Heartbeat CPU  0 instructions:   78000002 cycles:  127733984 heartbeat IPC: 0.21285 cumulative IPC: 0.27409 (Simulation time: 0 hr 9 min 50 sec) 
Heartbeat CPU  1 instructions:   77000001 cycles:  132199237 heartbeat IPC: 0.21776 cumulative IPC: 0.24753 (Simulation time: 0 hr 9 min 59 sec) 
Heartbeat CPU  3 instructions:   73000003 cycles:  132293639 heartbeat IPC: 0.21246 cumulative IPC: 0.21414 (Simulation time: 0 hr 9 min 59 sec) 
Heartbeat CPU  0 instructions:   79000003 cycles:  132332885 heartbeat IPC: 0.21744 cumulative IPC: 0.27165 (Simulation time: 0 hr 9 min 59 sec) 
Heartbeat CPU  2 instructions:   89000000 cycles:  132879302 heartbeat IPC: 0.18807 cumulative IPC: 0.27183 (Simulation time: 0 hr 10 min 0 sec) 
Heartbeat CPU  3 instructions:   74000000 cycles:  136858435 heartbeat IPC: 0.21907 cumulative IPC: 0.21434 (Simulation time: 0 hr 10 min 8 sec) 
Heartbeat CPU  1 instructions:   78000003 cycles:  137043915 heartbeat IPC: 0.20641 cumulative IPC: 0.24575 (Simulation time: 0 hr 10 min 8 sec) 
Heartbeat CPU  0 instructions:   80000000 cycles:  137086841 heartbeat IPC: 0.21035 cumulative IPC: 0.26904 (Simulation time: 0 hr 10 min 8 sec) 
Heartbeat CPU  2 instructions:   90000001 cycles:  138576665 heartbeat IPC: 0.17552 cumulative IPC: 0.26697 (Simulation time: 0 hr 10 min 11 sec) 
Heartbeat CPU  3 instructions:   75000000 cycles:  141502877 heartbeat IPC: 0.21531 cumulative IPC: 0.21438 (Simulation time: 0 hr 10 min 17 sec) 
Heartbeat CPU  1 instructions:   79000003 cycles:  141803147 heartbeat IPC: 0.21012 cumulative IPC: 0.24429 (Simulation time: 0 hr 10 min 17 sec) 
Heartbeat CPU  0 instructions:   81000003 cycles:  141831090 heartbeat IPC: 0.21078 cumulative IPC: 0.26666 (Simulation time: 0 hr 10 min 17 sec) 
Heartbeat CPU  2 instructions:   91000003 cycles:  144333154 heartbeat IPC: 0.17372 cumulative IPC: 0.26245 (Simulation time: 0 hr 10 min 22 sec) 
Heartbeat CPU  3 instructions:   76000000 cycles:  146298623 heartbeat IPC: 0.20852 cumulative IPC: 0.21415 (Simulation time: 0 hr 10 min 26 sec) 
Heartbeat CPU  1 instructions:   80000000 cycles:  146434391 heartbeat IPC: 0.21592 cumulative IPC: 0.24320 (Simulation time: 0 hr 10 min 26 sec) 
Heartbeat CPU  0 instructions:   82000001 cycles:  146459405 heartbeat IPC: 0.21606 cumulative IPC: 0.26472 (Simulation time: 0 hr 10 min 26 sec) 
Heartbeat CPU  2 instructions:   92000000 cycles:  150189237 heartbeat IPC: 0.17076 cumulative IPC: 0.25814 (Simulation time: 0 hr 10 min 33 sec) 
Heartbeat CPU  3 instructions:   77000000 cycles:  151022877 heartbeat IPC: 0.21167 cumulative IPC: 0.21405 (Simulation time: 0 hr 10 min 35 sec) 
Heartbeat CPU  0 instructions:   83000000 cycles:  151118225 heartbeat IPC: 0.21465 cumulative IPC: 0.26286 (Simulation time: 0 hr 10 min 35 sec) 
Heartbeat CPU  1 instructions:   81000003 cycles:  151166851 heartbeat IPC: 0.21131 cumulative IPC: 0.24200 (Simulation time: 0 hr 10 min 35 sec) 
Heartbeat CPU  3 instructions:   78000000 cycles:  155696603 heartbeat IPC: 0.21396 cumulative IPC: 0.21405 (Simulation time: 0 hr 10 min 44 sec) 
Heartbeat CPU  0 instructions:   84000000 cycles:  155809997 heartbeat IPC: 0.21314 cumulative IPC: 0.26107 (Simulation time: 0 hr 10 min 44 sec) 
Heartbeat CPU  1 instructions:   82000000 cycles:  155882558 heartbeat IPC: 0.21206 cumulative IPC: 0.24092 (Simulation time: 0 hr 10 min 44 sec) 
Heartbeat CPU  2 instructions:   93000001 cycles:  155993641 heartbeat IPC: 0.17228 cumulative IPC: 0.25432 (Simulation time: 0 hr 10 min 45 sec) 
Heartbeat CPU  3 instructions:   79000000 cycles:  160441587 heartbeat IPC: 0.21075 cumulative IPC: 0.21393 (Simulation time: 0 hr 10 min 53 sec) 
Heartbeat CPU  1 instructions:   83000001 cycles:  160506061 heartbeat IPC: 0.21629 cumulative IPC: 0.24007 (Simulation time: 0 hr 10 min 53 sec) 
Heartbeat CPU  0 instructions:   85000000 cycles:  160664395 heartbeat IPC: 0.20600 cumulative IPC: 0.25909 (Simulation time: 0 hr 10 min 53 sec) 
Heartbeat CPU  2 instructions:   94000002 cycles:  161753638 heartbeat IPC: 0.17361 cumulative IPC: 0.25091 (Simulation time: 0 hr 10 min 55 sec) 
Heartbeat CPU  3 instructions:   80000000 cycles:  165146403 heartbeat IPC: 0.21255 cumulative IPC: 0.21389 (Simulation time: 0 hr 11 min 2 sec) 
Heartbeat CPU  0 instructions:   86000003 cycles:  165257889 heartbeat IPC: 0.21770 cumulative IPC: 0.25773 (Simulation time: 0 hr 11 min 2 sec) 
Heartbeat CPU  1 instructions:   84000000 cycles:  165382508 heartbeat IPC: 0.20507 cumulative IPC: 0.23885 (Simulation time: 0 hr 11 min 2 sec) 
Heartbeat CPU  2 instructions:   95000001 cycles:  167542338 heartbeat IPC: 0.17275 cumulative IPC: 0.24772 (Simulation time: 0 hr 11 min 6 sec) 
Heartbeat CPU  3 instructions:   81000003 cycles:  169892582 heartbeat IPC: 0.21070 cumulative IPC: 0.21378 (Simulation time: 0 hr 11 min 11 sec) 
Heartbeat CPU  0 instructions:   87000003 cycles:  170079417 heartbeat IPC: 0.20740 cumulative IPC: 0.25605 (Simulation time: 0 hr 11 min 11 sec) 
Heartbeat CPU  1 instructions:   85000002 cycles:  170119316 heartbeat IPC: 0.21111 cumulative IPC: 0.23794 (Simulation time: 0 hr 11 min 11 sec) 
Heartbeat CPU  2 instructions:   96000000 cycles:  173279930 heartbeat IPC: 0.17429 cumulative IPC: 0.24487 (Simulation time: 0 hr 11 min 18 sec) 
Heartbeat CPU  3 instructions:   82000002 cycles:  174592735 heartbeat IPC: 0.21276 cumulative IPC: 0.21375 (Simulation time: 0 hr 11 min 20 sec) 
Heartbeat CPU  0 instructions:   88000000 cycles:  174866340 heartbeat IPC: 0.20890 cumulative IPC: 0.25454 (Simulation time: 0 hr 11 min 21 sec) 
Heartbeat CPU  1 instructions:   86000003 cycles:  174898945 heartbeat IPC: 0.20922 cumulative IPC: 0.23702 (Simulation time: 0 hr 11 min 21 sec) 
Heartbeat CPU  2 instructions:   97000000 cycles:  178990150 heartbeat IPC: 0.17512 cumulative IPC: 0.24227 (Simulation time: 0 hr 11 min 29 sec) 
Heartbeat CPU  3 instructions:   83000000 cycles:  179234250 heartbeat IPC: 0.21545 cumulative IPC: 0.21380 (Simulation time: 0 hr 11 min 29 sec) 
Heartbeat CPU  0 instructions:   89000001 cycles:  179443404 heartbeat IPC: 0.21848 cumulative IPC: 0.25347 (Simulation time: 0 hr 11 min 30 sec) 
Heartbeat CPU  1 instructions:   87000002 cycles:  179630874 heartbeat IPC: 0.21133 cumulative IPC: 0.23623 (Simulation time: 0 hr 11 min 30 sec) 
Heartbeat CPU  3 instructions:   84000000 cycles:  183821723 heartbeat IPC: 0.21798 cumulative IPC: 0.21392 (Simulation time: 0 hr 11 min 38 sec) 
Heartbeat CPU  0 instructions:   90000000 cycles:  184127251 heartbeat IPC: 0.21350 cumulative IPC: 0.25229 (Simulation time: 0 hr 11 min 39 sec) 
Heartbeat CPU  1 instructions:   88000000 cycles:  184215464 heartbeat IPC: 0.21812 cumulative IPC: 0.23571 (Simulation time: 0 hr 11 min 39 sec) 
Heartbeat CPU  2 instructions:   98000003 cycles:  184478250 heartbeat IPC: 0.18221 cumulative IPC: 0.24020 (Simulation time: 0 hr 11 min 40 sec) 
Heartbeat CPU  3 instructions:   85000002 cycles:  188641472 heartbeat IPC: 0.20748 cumulative IPC: 0.21373 (Simulation time: 0 hr 11 min 48 sec) 
Heartbeat CPU  1 instructions:   89000000 cycles:  188778163 heartbeat IPC: 0.21917 cumulative IPC: 0.23525 (Simulation time: 0 hr 11 min 48 sec) 
Heartbeat CPU  0 instructions:   91000002 cycles:  188787931 heartbeat IPC: 0.21456 cumulative IPC: 0.25121 (Simulation time: 0 hr 11 min 48 sec) 
Heartbeat CPU  2 instructions:   99000000 cycles:  190237930 heartbeat IPC: 0.17362 cumulative IPC: 0.23787 (Simulation time: 0 hr 11 min 51 sec) 
Heartbeat CPU  3 instructions:   86000003 cycles:  193293666 heartbeat IPC: 0.21495 cumulative IPC: 0.21377 (Simulation time: 0 hr 11 min 57 sec) 
Heartbeat CPU  1 instructions:   90000000 cycles:  193436855 heartbeat IPC: 0.21465 cumulative IPC: 0.23468 (Simulation time: 0 hr 11 min 57 sec) 
Heartbeat CPU  0 instructions:   92000000 cycles:  193557240 heartbeat IPC: 0.20967 cumulative IPC: 0.25003 (Simulation time: 0 hr 11 min 57 sec) 
*** Reached end of trace for Core: 2 Repeating trace: /data3/STREAMING/traces/streaming_phase1_core2.trace.xz
Heartbeat CPU  2 instructions:  100000000 cycles:  195764612 heartbeat IPC: 0.18094 cumulative IPC: 0.23602 (Simulation time: 0 hr 12 min 2 sec) 
Heartbeat CPU  2 instructions:  101000001 cycles:  197564505 heartbeat IPC: 0.55559 cumulative IPC: 0.23937 (Simulation time: 0 hr 12 min 6 sec) 
Heartbeat CPU  3 instructions:   87000001 cycles:  198008850 heartbeat IPC: 0.21208 cumulative IPC: 0.21372 (Simulation time: 0 hr 12 min 7 sec) 
Heartbeat CPU  1 instructions:   91000000 cycles:  198104659 heartbeat IPC: 0.21423 cumulative IPC: 0.23412 (Simulation time: 0 hr 12 min 8 sec) 
Heartbeat CPU  0 instructions:   93000000 cycles:  198294766 heartbeat IPC: 0.21108 cumulative IPC: 0.24896 (Simulation time: 0 hr 12 min 8 sec) 
Heartbeat CPU  2 instructions:  102000003 cycles:  199490208 heartbeat IPC: 0.51929 cumulative IPC: 0.24247 (Simulation time: 0 hr 12 min 11 sec) 
Heartbeat CPU  2 instructions:  103000001 cycles:  201332473 heartbeat IPC: 0.54281 cumulative IPC: 0.24561 (Simulation time: 0 hr 12 min 15 sec) 
Heartbeat CPU  1 instructions:   92000000 cycles:  202779608 heartbeat IPC: 0.21391 cumulative IPC: 0.23359 (Simulation time: 0 hr 12 min 19 sec) 
Heartbeat CPU  3 instructions:   88000000 cycles:  202784193 heartbeat IPC: 0.20941 cumulative IPC: 0.21360 (Simulation time: 0 hr 12 min 19 sec) 
Heartbeat CPU  0 instructions:   94000000 cycles:  203045242 heartbeat IPC: 0.21051 cumulative IPC: 0.24793 (Simulation time: 0 hr 12 min 20 sec) 
Heartbeat CPU  2 instructions:  104000000 cycles:  203262109 heartbeat IPC: 0.51823 cumulative IPC: 0.24857 (Simulation time: 0 hr 12 min 20 sec) 
Heartbeat CPU  2 instructions:  105000001 cycles:  205125923 heartbeat IPC: 0.53653 cumulative IPC: 0.25156 (Simulation time: 0 hr 12 min 25 sec) 
Heartbeat CPU  2 instructions:  106000002 cycles:  206760196 heartbeat IPC: 0.61189 cumulative IPC: 0.25481 (Simulation time: 0 hr 12 min 29 sec) 
Heartbeat CPU  3 instructions:   89000003 cycles:  207457073 heartbeat IPC: 0.21400 cumulative IPC: 0.21361 (Simulation time: 0 hr 12 min 30 sec) 
Heartbeat CPU  1 instructions:   93000001 cycles:  207608020 heartbeat IPC: 0.20711 cumulative IPC: 0.23289 (Simulation time: 0 hr 12 min 31 sec) 
Heartbeat CPU  0 instructions:   95000000 cycles:  207800967 heartbeat IPC: 0.21027 cumulative IPC: 0.24695 (Simulation time: 0 hr 12 min 31 sec) 
Heartbeat CPU  3 instructions:   90000003 cycles:  212139103 heartbeat IPC: 0.21358 cumulative IPC: 0.21361 (Simulation time: 0 hr 12 min 39 sec) 
Heartbeat CPU  2 instructions:  107000003 cycles:  212177781 heartbeat IPC: 0.18458 cumulative IPC: 0.25277 (Simulation time: 0 hr 12 min 40 sec) 
Heartbeat CPU  1 instructions:   94000003 cycles:  212335517 heartbeat IPC: 0.21153 cumulative IPC: 0.23235 (Simulation time: 0 hr 12 min 40 sec) 
Heartbeat CPU  0 instructions:   96000000 cycles:  212488548 heartbeat IPC: 0.21333 cumulative IPC: 0.24611 (Simulation time: 0 hr 12 min 40 sec) 
Heartbeat CPU  3 instructions:   91000000 cycles:  216841161 heartbeat IPC: 0.21267 cumulative IPC: 0.21359 (Simulation time: 0 hr 12 min 49 sec) 
Heartbeat CPU  1 instructions:   95000002 cycles:  217024150 heartbeat IPC: 0.21328 cumulative IPC: 0.23188 (Simulation time: 0 hr 12 min 49 sec) 
Heartbeat CPU  0 instructions:   97000003 cycles:  217165419 heartbeat IPC: 0.21382 cumulative IPC: 0.24532 (Simulation time: 0 hr 12 min 49 sec) 
Heartbeat CPU  2 instructions:  108000000 cycles:  217743987 heartbeat IPC: 0.17966 cumulative IPC: 0.25066 (Simulation time: 0 hr 12 min 51 sec) 
Heartbeat CPU  3 instructions:   92000000 cycles:  221546558 heartbeat IPC: 0.21252 cumulative IPC: 0.21356 (Simulation time: 0 hr 12 min 58 sec) 
Heartbeat CPU  1 instructions:   96000000 cycles:  221633546 heartbeat IPC: 0.21695 cumulative IPC: 0.23153 (Simulation time: 0 hr 12 min 58 sec) 
Heartbeat CPU  0 instructions:   98000002 cycles:  221934074 heartbeat IPC: 0.20970 cumulative IPC: 0.24445 (Simulation time: 0 hr 12 min 59 sec) 
Heartbeat CPU  2 instructions:  109000003 cycles:  223499727 heartbeat IPC: 0.17374 cumulative IPC: 0.24842 (Simulation time: 0 hr 13 min 2 sec) 
Heartbeat CPU  1 instructions:   97000003 cycles:  226263978 heartbeat IPC: 0.21596 cumulative IPC: 0.23117 (Simulation time: 0 hr 13 min 7 sec) 
Heartbeat CPU  3 instructions:   93000000 cycles:  226288367 heartbeat IPC: 0.21089 cumulative IPC: 0.21350 (Simulation time: 0 hr 13 min 7 sec) 
Heartbeat CPU  0 instructions:   99000000 cycles:  226848851 heartbeat IPC: 0.20347 cumulative IPC: 0.24345 (Simulation time: 0 hr 13 min 8 sec) 
Heartbeat CPU  2 instructions:  110000002 cycles:  229354734 heartbeat IPC: 0.17079 cumulative IPC: 0.24619 (Simulation time: 0 hr 13 min 13 sec) 
Heartbeat CPU  3 instructions:   94000000 cycles:  230974874 heartbeat IPC: 0.21338 cumulative IPC: 0.21350 (Simulation time: 0 hr 13 min 16 sec) 
Heartbeat CPU  1 instructions:   98000000 cycles:  231014190 heartbeat IPC: 0.21052 cumulative IPC: 0.23069 (Simulation time: 0 hr 13 min 16 sec) 
*** Reached end of trace for Core: 0 Repeating trace: /data3/STREAMING/traces/streaming_phase1_core0.trace.xz
Heartbeat CPU  0 instructions:  100000000 cycles:  231606131 heartbeat IPC: 0.21020 cumulative IPC: 0.24269 (Simulation time: 0 hr 13 min 17 sec) 
Heartbeat CPU  2 instructions:  111000001 cycles:  233544526 heartbeat IPC: 0.23868 cumulative IPC: 0.24604 (Simulation time: 0 hr 13 min 22 sec) 
Heartbeat CPU  2 instructions:  112000000 cycles:  235353881 heartbeat IPC: 0.55268 cumulative IPC: 0.24868 (Simulation time: 0 hr 13 min 26 sec) 
Heartbeat CPU  3 instructions:   95000000 cycles:  235654040 heartbeat IPC: 0.21371 cumulative IPC: 0.21350 (Simulation time: 0 hr 13 min 27 sec) 
Heartbeat CPU  1 instructions:   99000000 cycles:  235882881 heartbeat IPC: 0.20539 cumulative IPC: 0.23011 (Simulation time: 0 hr 13 min 27 sec) 
Heartbeat CPU  0 instructions:  101000001 cycles:  236244118 heartbeat IPC: 0.21561 cumulative IPC: 0.24209 (Simulation time: 0 hr 13 min 28 sec) 
Heartbeat CPU  2 instructions:  113000002 cycles:  237152332 heartbeat IPC: 0.55604 cumulative IPC: 0.25130 (Simulation time: 0 hr 13 min 30 sec) 
Heartbeat CPU  2 instructions:  114000001 cycles:  239061504 heartbeat IPC: 0.52379 cumulative IPC: 0.25373 (Simulation time: 0 hr 13 min 35 sec) 
*** Reached end of trace for Core: 1 Repeating trace: /data3/STREAMING/traces/streaming_phase1_core1.trace.xz
Heartbeat CPU  3 instructions:   96000000 cycles:  240364338 heartbeat IPC: 0.21230 cumulative IPC: 0.21348 (Simulation time: 0 hr 13 min 38 sec) 
Heartbeat CPU  1 instructions:  100000000 cycles:  240529506 heartbeat IPC: 0.21521 cumulative IPC: 0.22978 (Simulation time: 0 hr 13 min 39 sec) 
Heartbeat CPU  0 instructions:  102000000 cycles:  240823306 heartbeat IPC: 0.21838 cumulative IPC: 0.24158 (Simulation time: 0 hr 13 min 40 sec) 
Heartbeat CPU  2 instructions:  115000002 cycles:  240911477 heartbeat IPC: 0.54055 cumulative IPC: 0.25620 (Simulation time: 0 hr 13 min 40 sec) 
Heartbeat CPU  2 instructions:  116000000 cycles:  242706212 heartbeat IPC: 0.55718 cumulative IPC: 0.25868 (Simulation time: 0 hr 13 min 44 sec) 
Heartbeat CPU  2 instructions:  117000000 cycles:  244516512 heartbeat IPC: 0.55239 cumulative IPC: 0.26111 (Simulation time: 0 hr 13 min 49 sec) 
Heartbeat CPU  1 instructions:  101000002 cycles:  245028663 heartbeat IPC: 0.22226 cumulative IPC: 0.22963 (Simulation time: 0 hr 13 min 50 sec) 
Heartbeat CPU  3 instructions:   97000002 cycles:  245088324 heartbeat IPC: 0.21169 cumulative IPC: 0.21344 (Simulation time: 0 hr 13 min 50 sec) 
Heartbeat CPU  0 instructions:  103000000 cycles:  245565407 heartbeat IPC: 0.21088 cumulative IPC: 0.24092 (Simulation time: 0 hr 13 min 51 sec) 
Heartbeat CPU  2 instructions:  118000000 cycles:  246267010 heartbeat IPC: 0.57127 cumulative IPC: 0.26357 (Simulation time: 0 hr 13 min 53 sec) 
Heartbeat CPU  2 instructions:  119000003 cycles:  248011936 heartbeat IPC: 0.57309 cumulative IPC: 0.26600 (Simulation time: 0 hr 13 min 57 sec) 
Heartbeat CPU  1 instructions:  102000001 cycles:  249628525 heartbeat IPC: 0.21740 cumulative IPC: 0.22938 (Simulation time: 0 hr 14 min 2 sec) 
Heartbeat CPU  2 instructions:  120000000 cycles:  249701487 heartbeat IPC: 0.59187 cumulative IPC: 0.26846 (Simulation time: 0 hr 14 min 2 sec) 
Heartbeat CPU  3 instructions:   98000003 cycles:  249726285 heartbeat IPC: 0.21561 cumulative IPC: 0.21348 (Simulation time: 0 hr 14 min 2 sec) 
Heartbeat CPU  0 instructions:  104000000 cycles:  250158291 heartbeat IPC: 0.21773 cumulative IPC: 0.24045 (Simulation time: 0 hr 14 min 3 sec) 
Heartbeat CPU  2 instructions:  121000003 cycles:  251435496 heartbeat IPC: 0.57670 cumulative IPC: 0.27082 (Simulation time: 0 hr 14 min 6 sec) 
Heartbeat CPU  2 instructions:  122000001 cycles:  253387623 heartbeat IPC: 0.51226 cumulative IPC: 0.27289 (Simulation time: 0 hr 14 min 11 sec) 
Heartbeat CPU  1 instructions:  103000000 cycles:  254272869 heartbeat IPC: 0.21532 cumulative IPC: 0.22909 (Simulation time: 0 hr 14 min 13 sec) 
Heartbeat CPU  3 instructions:   99000002 cycles:  254609042 heartbeat IPC: 0.20480 cumulative IPC: 0.21330 (Simulation time: 0 hr 14 min 14 sec) 
Heartbeat CPU  0 instructions:  105000002 cycles:  254778942 heartbeat IPC: 0.21642 cumulative IPC: 0.23996 (Simulation time: 0 hr 14 min 14 sec) 
Heartbeat CPU  2 instructions:  123000001 cycles:  255202633 heartbeat IPC: 0.55096 cumulative IPC: 0.27509 (Simulation time: 0 hr 14 min 15 sec) 
Heartbeat CPU  2 instructions:  124000000 cycles:  257087311 heartbeat IPC: 0.53059 cumulative IPC: 0.27717 (Simulation time: 0 hr 14 min 20 sec) 
Heartbeat CPU  0 instructions:  106000002 cycles:  258788770 heartbeat IPC: 0.24939 cumulative IPC: 0.24013 (Simulation time: 0 hr 14 min 24 sec) 
Heartbeat CPU  1 instructions:  104000000 cycles:  258838585 heartbeat IPC: 0.21902 cumulative IPC: 0.22890 (Simulation time: 0 hr 14 min 24 sec) 
Heartbeat CPU  2 instructions:  125000001 cycles:  259091453 heartbeat IPC: 0.49897 cumulative IPC: 0.27907 (Simulation time: 0 hr 14 min 25 sec) 
*** Reached end of trace for Core: 3 Repeating trace: /data3/STREAMING/traces/streaming_phase1_core3.trace.xz
Heartbeat CPU  3 instructions:  100000000 cycles:  259582197 heartbeat IPC: 0.20108 cumulative IPC: 0.21304 (Simulation time: 0 hr 14 min 26 sec) 
Heartbeat CPU  2 instructions:  126000003 cycles:  260823831 heartbeat IPC: 0.57724 cumulative IPC: 0.28127 (Simulation time: 0 hr 14 min 29 sec) 
Heartbeat CPU  2 instructions:  127000001 cycles:  262552564 heartbeat IPC: 0.57846 cumulative IPC: 0.28344 (Simulation time: 0 hr 14 min 34 sec) 
Heartbeat CPU  0 instructions:  107000001 cycles:  262866083 heartbeat IPC: 0.24526 cumulative IPC: 0.24021 (Simulation time: 0 hr 14 min 35 sec) 
Heartbeat CPU  1 instructions:  105000000 cycles:  263492782 heartbeat IPC: 0.21486 cumulative IPC: 0.22862 (Simulation time: 0 hr 14 min 36 sec) 
Heartbeat CPU  3 instructions:  101000002 cycles:  264257571 heartbeat IPC: 0.21389 cumulative IPC: 0.21305 (Simulation time: 0 hr 14 min 38 sec) 
Heartbeat CPU  2 instructions:  128000000 cycles:  264283427 heartbeat IPC: 0.57775 cumulative IPC: 0.28557 (Simulation time: 0 hr 14 min 38 sec) 
Heartbeat CPU  2 instructions:  129000002 cycles:  266032328 heartbeat IPC: 0.57179 cumulative IPC: 0.28765 (Simulation time: 0 hr 14 min 43 sec) 
Heartbeat CPU  0 instructions:  108000000 cycles:  267346860 heartbeat IPC: 0.22318 cumulative IPC: 0.23990 (Simulation time: 0 hr 14 min 46 sec) 
Heartbeat CPU  2 instructions:  130000003 cycles:  267822896 heartbeat IPC: 0.55848 cumulative IPC: 0.28966 (Simulation time: 0 hr 14 min 47 sec) 
Heartbeat CPU  1 instructions:  106000002 cycles:  268177532 heartbeat IPC: 0.21346 cumulative IPC: 0.22833 (Simulation time: 0 hr 14 min 48 sec) 
Heartbeat CPU  3 instructions:  102000000 cycles:  268944354 heartbeat IPC: 0.21337 cumulative IPC: 0.21306 (Simulation time: 0 hr 14 min 50 sec) 
Heartbeat CPU  2 instructions:  131000000 cycles:  269644071 heartbeat IPC: 0.54909 cumulative IPC: 0.29159 (Simulation time: 0 hr 14 min 51 sec) 
Heartbeat CPU  2 instructions:  132000000 cycles:  271446685 heartbeat IPC: 0.55475 cumulative IPC: 0.29352 (Simulation time: 0 hr 14 min 56 sec) 
Heartbeat CPU  0 instructions:  109000002 cycles:  271961948 heartbeat IPC: 0.21668 cumulative IPC: 0.23946 (Simulation time: 0 hr 14 min 57 sec) 
Heartbeat CPU  1 instructions:  107000002 cycles:  272605556 heartbeat IPC: 0.22583 cumulative IPC: 0.22828 (Simulation time: 0 hr 14 min 59 sec) 
Heartbeat CPU  2 instructions:  133000003 cycles:  273212557 heartbeat IPC: 0.56629 cumulative IPC: 0.29547 (Simulation time: 0 hr 15 min 1 sec) 
Heartbeat CPU  3 instructions:  103000003 cycles:  273551049 heartbeat IPC: 0.21708 cumulative IPC: 0.21314 (Simulation time: 0 hr 15 min 1 sec) 
Heartbeat CPU  2 instructions:  134000001 cycles:  274961539 heartbeat IPC: 0.57176 cumulative IPC: 0.29740 (Simulation time: 0 hr 15 min 5 sec) 
Heartbeat CPU  0 instructions:  110000001 cycles:  276616208 heartbeat IPC: 0.21486 cumulative IPC: 0.23901 (Simulation time: 0 hr 15 min 9 sec) 
Heartbeat CPU  2 instructions:  135000000 cycles:  276743364 heartbeat IPC: 0.56122 cumulative IPC: 0.29928 (Simulation time: 0 hr 15 min 9 sec) 
Heartbeat CPU  1 instructions:  108000000 cycles:  277195160 heartbeat IPC: 0.21788 cumulative IPC: 0.22809 (Simulation time: 0 hr 15 min 10 sec) 
Heartbeat CPU  3 instructions:  104000000 cycles:  278250710 heartbeat IPC: 0.21278 cumulative IPC: 0.21313 (Simulation time: 0 hr 15 min 13 sec) 
Heartbeat CPU  2 instructions:  136000000 cycles:  278621551 heartbeat IPC: 0.53243 cumulative IPC: 0.30101 (Simulation time: 0 hr 15 min 14 sec) 
Heartbeat CPU  0 instructions:  111000001 cycles:  281239773 heartbeat IPC: 0.21628 cumulative IPC: 0.23860 (Simulation time: 0 hr 15 min 19 sec) 
Heartbeat CPU  1 instructions:  109000001 cycles:  281882712 heartbeat IPC: 0.21333 cumulative IPC: 0.22782 (Simulation time: 0 hr 15 min 20 sec) 
Heartbeat CPU  2 instructions:  137000000 cycles:  282688151 heartbeat IPC: 0.24591 cumulative IPC: 0.30013 (Simulation time: 0 hr 15 min 22 sec) 
Heartbeat CPU  3 instructions:  105000001 cycles:  282997264 heartbeat IPC: 0.21068 cumulative IPC: 0.21308 (Simulation time: 0 hr 15 min 23 sec) 
Heartbeat CPU  3 instructions:  106000002 cycles:  284533216 heartbeat IPC: 0.65106 cumulative IPC: 0.21568 (Simulation time: 0 hr 15 min 27 sec) 
Heartbeat CPU  0 instructions:  112000000 cycles:  285849899 heartbeat IPC: 0.21691 cumulative IPC: 0.23821 (Simulation time: 0 hr 15 min 29 sec) 
Heartbeat CPU  1 instructions:  110000003 cycles:  286733733 heartbeat IPC: 0.20614 cumulative IPC: 0.22742 (Simulation time: 0 hr 15 min 31 sec) 
Heartbeat CPU  2 instructions:  138000002 cycles:  288284197 heartbeat IPC: 0.17870 cumulative IPC: 0.29755 (Simulation time: 0 hr 15 min 34 sec) 
Heartbeat CPU  3 instructions:  107000000 cycles:  289022985 heartbeat IPC: 0.22273 cumulative IPC: 0.21580 (Simulation time: 0 hr 15 min 35 sec) 
Heartbeat CPU  0 instructions:  113000002 cycles:  290408967 heartbeat IPC: 0.21934 cumulative IPC: 0.23789 (Simulation time: 0 hr 15 min 38 sec) 
Heartbeat CPU  1 instructions:  111000003 cycles:  291366875 heartbeat IPC: 0.21584 cumulative IPC: 0.22722 (Simulation time: 0 hr 15 min 40 sec) 
Heartbeat CPU  3 instructions:  108000000 cycles:  293610273 heartbeat IPC: 0.21799 cumulative IPC: 0.21584 (Simulation time: 0 hr 15 min 44 sec) 
Heartbeat CPU  2 instructions:  139000001 cycles:  294045084 heartbeat IPC: 0.17358 cumulative IPC: 0.29489 (Simulation time: 0 hr 15 min 45 sec) 
Heartbeat CPU  0 instructions:  114000001 cycles:  295094510 heartbeat IPC: 0.21342 cumulative IPC: 0.23746 (Simulation time: 0 hr 15 min 47 sec) 
Heartbeat CPU  1 instructions:  112000000 cycles:  296061935 heartbeat IPC: 0.21299 cumulative IPC: 0.22697 (Simulation time: 0 hr 15 min 49 sec) 
Heartbeat CPU  3 instructions:  109000000 cycles:  298291166 heartbeat IPC: 0.21363 cumulative IPC: 0.21580 (Simulation time: 0 hr 15 min 53 sec) 
Heartbeat CPU  2 instructions:  140000000 cycles:  299614652 heartbeat IPC: 0.17955 cumulative IPC: 0.29254 (Simulation time: 0 hr 15 min 56 sec) 
Heartbeat CPU  0 instructions:  115000001 cycles:  299717689 heartbeat IPC: 0.21630 cumulative IPC: 0.23711 (Simulation time: 0 hr 15 min 56 sec) 
Heartbeat CPU  1 instructions:  113000001 cycles:  300793558 heartbeat IPC: 0.21134 cumulative IPC: 0.22670 (Simulation time: 0 hr 15 min 58 sec) 
Heartbeat CPU  3 instructions:  110000000 cycles:  303017658 heartbeat IPC: 0.21157 cumulative IPC: 0.21573 (Simulation time: 0 hr 16 min 3 sec) 
Heartbeat CPU  0 instructions:  116000000 cycles:  304380196 heartbeat IPC: 0.21448 cumulative IPC: 0.23673 (Simulation time: 0 hr 16 min 5 sec) 
Heartbeat CPU  2 instructions:  141000001 cycles:  305250984 heartbeat IPC: 0.17742 cumulative IPC: 0.29022 (Simulation time: 0 hr 16 min 7 sec) 
Heartbeat CPU  1 instructions:  114000003 cycles:  305496729 heartbeat IPC: 0.21262 cumulative IPC: 0.22647 (Simulation time: 0 hr 16 min 7 sec) 
Heartbeat CPU  3 instructions:  111000001 cycles:  307632544 heartbeat IPC: 0.21669 cumulative IPC: 0.21574 (Simulation time: 0 hr 16 min 12 sec) 
Heartbeat CPU  0 instructions:  117000002 cycles:  308946057 heartbeat IPC: 0.21902 cumulative IPC: 0.23644 (Simulation time: 0 hr 16 min 14 sec) 
Heartbeat CPU  1 instructions:  115000000 cycles:  310236521 heartbeat IPC: 0.21098 cumulative IPC: 0.22621 (Simulation time: 0 hr 16 min 17 sec) 
Heartbeat CPU  2 instructions:  142000000 cycles:  311005748 heartbeat IPC: 0.17377 cumulative IPC: 0.28788 (Simulation time: 0 hr 16 min 18 sec) 
Heartbeat CPU  3 instructions:  112000000 cycles:  312210585 heartbeat IPC: 0.21843 cumulative IPC: 0.21579 (Simulation time: 0 hr 16 min 21 sec) 
Heartbeat CPU  0 instructions:  118000001 cycles:  313547106 heartbeat IPC: 0.21734 cumulative IPC: 0.23614 (Simulation time: 0 hr 16 min 23 sec) 
Heartbeat CPU  1 instructions:  116000000 cycles:  314759854 heartbeat IPC: 0.22108 cumulative IPC: 0.22613 (Simulation time: 0 hr 16 min 26 sec) 
Heartbeat CPU  3 instructions:  113000002 cycles:  316753985 heartbeat IPC: 0.22010 cumulative IPC: 0.21585 (Simulation time: 0 hr 16 min 29 sec) 
Heartbeat CPU  2 instructions:  143000001 cycles:  316800375 heartbeat IPC: 0.17257 cumulative IPC: 0.28558 (Simulation time: 0 hr 16 min 30 sec) 
Heartbeat CPU  0 instructions:  119000002 cycles:  318074183 heartbeat IPC: 0.22089 cumulative IPC: 0.23590 (Simulation time: 0 hr 16 min 32 sec) 
Heartbeat CPU  1 instructions:  117000000 cycles:  319368929 heartbeat IPC: 0.21696 cumulative IPC: 0.22599 (Simulation time: 0 hr 16 min 35 sec) 
Heartbeat CPU  3 instructions:  114000001 cycles:  321418489 heartbeat IPC: 0.21438 cumulative IPC: 0.21583 (Simulation time: 0 hr 16 min 39 sec) 
Heartbeat CPU  0 instructions:  120000000 cycles:  322585462 heartbeat IPC: 0.22167 cumulative IPC: 0.23568 (Simulation time: 0 hr 16 min 41 sec) 
Heartbeat CPU  2 instructions:  144000000 cycles:  322589890 heartbeat IPC: 0.17273 cumulative IPC: 0.28338 (Simulation time: 0 hr 16 min 41 sec) 
Heartbeat CPU  1 instructions:  118000001 cycles:  323914935 heartbeat IPC: 0.21997 cumulative IPC: 0.22589 (Simulation time: 0 hr 16 min 44 sec) 
Heartbeat CPU  3 instructions:  115000003 cycles:  326032573 heartbeat IPC: 0.21673 cumulative IPC: 0.21585 (Simulation time: 0 hr 16 min 48 sec) 
Heartbeat CPU  0 instructions:  121000003 cycles:  327070982 heartbeat IPC: 0.22294 cumulative IPC: 0.23549 (Simulation time: 0 hr 16 min 50 sec) 
Heartbeat CPU  2 instructions:  145000003 cycles:  328351051 heartbeat IPC: 0.17358 cumulative IPC: 0.28129 (Simulation time: 0 hr 16 min 52 sec) 
Heartbeat CPU  1 instructions:  119000003 cycles:  328412346 heartbeat IPC: 0.22235 cumulative IPC: 0.22584 (Simulation time: 0 hr 16 min 52 sec) 
Heartbeat CPU  3 instructions:  116000000 cycles:  330543111 heartbeat IPC: 0.22170 cumulative IPC: 0.21593 (Simulation time: 0 hr 16 min 56 sec) 
Heartbeat CPU  0 instructions:  122000001 cycles:  331634358 heartbeat IPC: 0.21914 cumulative IPC: 0.23525 (Simulation time: 0 hr 16 min 59 sec) 
Heartbeat CPU  1 instructions:  120000000 cycles:  332888245 heartbeat IPC: 0.22342 cumulative IPC: 0.22581 (Simulation time: 0 hr 17 min 1 sec) 
Heartbeat CPU  2 instructions:  146000001 cycles:  334208211 heartbeat IPC: 0.17073 cumulative IPC: 0.27919 (Simulation time: 0 hr 17 min 4 sec) 
Heartbeat CPU  3 instructions:  117000000 cycles:  335160544 heartbeat IPC: 0.21657 cumulative IPC: 0.21594 (Simulation time: 0 hr 17 min 5 sec) 
Heartbeat CPU  0 instructions:  123000000 cycles:  336373984 heartbeat IPC: 0.21099 cumulative IPC: 0.23488 (Simulation time: 0 hr 17 min 8 sec) 
Heartbeat CPU  1 instructions:  121000002 cycles:  337385630 heartbeat IPC: 0.22235 cumulative IPC: 0.22576 (Simulation time: 0 hr 17 min 10 sec) 
Heartbeat CPU  3 instructions:  118000002 cycles:  339789733 heartbeat IPC: 0.21602 cumulative IPC: 0.21594 (Simulation time: 0 hr 17 min 14 sec) 
Heartbeat CPU  2 instructions:  147000002 cycles:  340047107 heartbeat IPC: 0.17127 cumulative IPC: 0.27719 (Simulation time: 0 hr 17 min 15 sec) 
Heartbeat CPU  0 instructions:  124000000 cycles:  341085160 heartbeat IPC: 0.21226 cumulative IPC: 0.23454 (Simulation time: 0 hr 17 min 17 sec) 
Heartbeat CPU  1 instructions:  122000003 cycles:  341929022 heartbeat IPC: 0.22010 cumulative IPC: 0.22567 (Simulation time: 0 hr 17 min 18 sec) 
Heartbeat CPU  3 instructions:  119000000 cycles:  344301861 heartbeat IPC: 0.22162 cumulative IPC: 0.21602 (Simulation time: 0 hr 17 min 23 sec) 
Heartbeat CPU  2 instructions:  148000000 cycles:  345781867 heartbeat IPC: 0.17437 cumulative IPC: 0.27535 (Simulation time: 0 hr 17 min 26 sec) 
Heartbeat CPU  0 instructions:  125000002 cycles:  345909558 heartbeat IPC: 0.20728 cumulative IPC: 0.23413 (Simulation time: 0 hr 17 min 26 sec) 
Heartbeat CPU  1 instructions:  123000001 cycles:  346362323 heartbeat IPC: 0.22557 cumulative IPC: 0.22567 (Simulation time: 0 hr 17 min 27 sec) 
Heartbeat CPU  3 instructions:  120000000 cycles:  348812433 heartbeat IPC: 0.22170 cumulative IPC: 0.21610 (Simulation time: 0 hr 17 min 32 sec) 
Heartbeat CPU  0 instructions:  126000001 cycles:  350554169 heartbeat IPC: 0.21530 cumulative IPC: 0.23386 (Simulation time: 0 hr 17 min 35 sec) 
Heartbeat CPU  1 instructions:  124000000 cycles:  350990738 heartbeat IPC: 0.21606 cumulative IPC: 0.22554 (Simulation time: 0 hr 17 min 36 sec) 
Heartbeat CPU  2 instructions:  149000003 cycles:  351595990 heartbeat IPC: 0.17200 cumulative IPC: 0.27351 (Simulation time: 0 hr 17 min 37 sec) 
Heartbeat CPU  3 instructions:  121000003 cycles:  353313225 heartbeat IPC: 0.22218 cumulative IPC: 0.21619 (Simulation time: 0 hr 17 min 40 sec) 
Heartbeat CPU  0 instructions:  127000002 cycles:  355152917 heartbeat IPC: 0.21745 cumulative IPC: 0.23363 (Simulation time: 0 hr 17 min 44 sec) 
[...]
IIIIIIIIIIIIIIIIIIIIIIIIIIIIIAAAA222222222222222244444A222222222
IIIIIIIIIIIIIIIIIIIIIIIIIIIIIAAAAA22222222222222244444A222222222
IIIIIIIIIIIIIIIIIIIIIIIIIIIIIIAAAA22222222222222244444A222222222
IIIIIIIIIIIIIIIIIIIIIIIIIIIIIAAAAA22222222222222244444A222222222
IIIIIIIIIIIIIIIIIIIIIIIIIIIIIAIAAA22222222222222244444A222222222
IIIIIIIIIIIIIIIIIIIIIIIIIIIIIIIAAA22222222222222244444A222222222
IIIIIIIIIIIIIIIIIIIIIIIIIIIIIIIAIA22222222222222244444A222222222
IIIIIIIIIIIIIIIIIIIIIIIIIIIIIIIAIA22222222222222244444I222222222
IIIIIIIIIIIIIIIIIIIIIIIIIIIIIA2AIA22222222222222244444I222222222
IIIIIIIIIIIIIIIIIIIIIIIIIIIIIAAA2A22222222222222244444I222222222
IIIIIIIIIIIIIIIIIIIIIIIIIIIIIAAAAA22222222222222244444I222222222
IIIIIIIIIIIIIIIIIIIIIIIIIIIIIAAAAA22222222222222244444A222222222
IIIIIIIIIIIIIIIIIIIIIIIIIIIIIAAAAA22222222222222244444I222222222
IIIIIIIIIIIIIIIIIIIIIIIIIIIIIAAAAA22222222222222244444A222222222
IIIIIIIIIIIIIIIIIIIIIIIIIIIIIAIAAA22222222222222244444A222222222
IIIIIIIIIIIIIIIIIIIIIIIIIIIIIAIAAI22222222222222244444A222222222
IIIIIIIIIIIIIIIIIIIIIIIIIIIIIA2AAI22222222222222244444A222222222
IIIIIIIIIIIIIIIIIIIIIIIIIIIIIAAAA222222222222222244444A222222222
IIIIIIIIIIIIIIIIIIIIIIIIIIIIIAAAAA22222222222222244444A222222222
IIIIIIIIIIIIIIIIIIIIIIIIIIIIIAAAIA22222222222222244444A222222222
IIIIIIIIIIIIIIIIIIIIIIIIIIIIIAAA2A22222222222222244444A222222222
IIIIIIIIIIIIIIIIIIIIIIIIIIIIIAAAAA22222222222222244444A222222222
IIIIIIIIIIIIIIIIIIIIIIIIIIIIIIAAAA22222222222222244444A222222222
IIIIIIIIIIIIIIIIIIIIIIIIIIIIIAAAAA22222222222222244444A222222222
IIIIIIIIIIIIIIIIIIIIIIIIIIIIIAIAAA22222222222222244444A222222222
IIIIIIIIIIIIIIIIIIIIIIIIIIIIIA2AAA22222222222222244444A222222222
IIIIIIIIIIIIIIIIIIIIIIIIIIIIIAAAAA22222222222222244444A222222222
IIIIIIIIIIIIIIIIIIIIIIIIIIIIIIAAAA22222222222222244444A222222222
IIIIIIIIIIIIIIIIIIIIIIIIIIIIIIAAIA22222222222222244444A222222222
IIIIIIIIIIIIIIIIIIIIIIIIIIIIIIAAII22222222222222244444A222222222
IIIIIIIIIIIIIIIIIIIIIIIIIIIIIIAIII22222222222222244444A222222222
IIIIIIIIIIIIIIIIIIIIIIIIIIIIIAA22I22222222222222244444A222222222
IIIIIIIIIIIIIIIIIIIIIIIIIIIIIAA22222222222222222244444A222222222
IIIIIIIIIIIIIIIIIIIIIIIIIIIIIAAA2222222222222222244444A222222222
IIIIIIIIIIIIIIIIIIIIIIIIIIIIIAAAA222222222222222244444A222222222
IIIIIIIIIIIIIIIIIIIIIIIIIIIIIAAAAA22222222222222244444A222222222
IIIIIIIIIIIIIIIIIIIIIIIIIIIIIAAAAI22222222222222244444A222222222
IIIIIIIIIIIIIIIIIIIIIIIIIIIIIAAAA222222222222222244444A222222222
IIIIIIIIIIIIIIIIIIIIIIIIIIIIIAAAAA22222222222222244444A222222222
IIIIIIIIIIIIIIIIIIIIIIIIIIIIIAIAAA22222222222222244444A222222222
IIIIIIIIIIIIIIIIIIIIIIIIIIIIIA2AAA22222222222222244444A222222222
IIIIIIIIIIIIIIIIIIIIIIIIIIIIIAAAAA22222222222222244444A222222222
IIIIIIIIIIIIIIIIIIIIIIIIIIIIIAAAIA22222222222222244444A222222222
IIIIIIIIIIIIIIIIIIIIIIIIIIIIIAAAII22222222222222244444A222222222
IIIIIIIIIIIIIIIIIIIIIIIIIIIIIAAAI422222222222222244444A222222222
IIIIIIIIIIIIIIIIIIIIIIIIIIIIIAAA2422222222222222244444A222222222
IIIIIIIIIIIIIIIIIIIIIIIIIIIIIAAAA222222222222222244444A222222222
IIIIIIIIIIIIIIIIIIIIIIIIIIIIIAAAAA22222222222222244444A222222222
IIIIIIIIIIIIIIIIIIIIIIIIIIIIIAIAAA22222222222222244444A222222222
IIIIIIIIIIIIIIIIIIIIIIIIIIIIIAIIAA22222222222222244444A222222222
IIIIIIIIIIIIIIIIIIIIIIIIIIIIIAIIIA22222222222222244444A222222222
IIIIIIIIIIIIIIIIIIIIIIIIIIIIIAIIII22222222222222244444A222222222
IIIIIIIIIIIIIIIIIIIIIIIIIIIIIAIIII22222222222222244444I222222222
IIIIIIIIIIIIIIIIIIIIIIIIIIIIIIIIII22222222222222244444I222222222
IIIIIIIIIIIIIIIIIIIIIIIIIIIIIA444I22222222222222244444I222222222
IIIIIIIIIIIIIIIIIIIIIIIIIIIIIAA44422222222222222244444I222222222
IIIIIIIIIIIIIIIIIIIIIIIIIIIIIAAA4422222222222222244444I222222222
IIIIIIIIIIIIIIIIIIIIIIIIIIIIIAAAA422222222222222244444I222222222
IIIIIIIIIIIIIIIIIIIIIIIIIIIIIAAAAA22222222222222244444I222222222
IIIIIIIIIIIIIIIIIIIIIIIIIIIIIAAAAA22222222222222244444A222222222
IIIIIIIIIIIIIIIIIIIIIIIIIIIIIAIAAA22222222222222244444A222222222
IIIIIIIIIIIIIIIIIIIIIIIIIIIIIAIIAA22222222222222244444A222222222
IIIIIIIIIIIIIIIIIIIIIIIIIIIIIA22AA22222222222222244444A222222222
IIIIIIIIIIIIIIIIIIIIIIIIIIIIIAA2AA22222222222222244444A222222222
IIIIIIIIIIIIIIIIIIIIIIIIIIIIIAAAAA22222222222222244444A222222222
IIIIIIIIIIIIIIIIIIIIIIIIIIIIIAIAAA22222222222222244444A222222222
IIIIIIIIIIIIIIIIIIIIIIIIIIIIIAIAAI22222222222222244444A222222222
IIIIIIIIIIIIIIIIIIIIIIIIIIIIIIIAAI22222222222222244444A222222222
IIIIIIIIIIIIIIIIIIIIIIIIIIIIIA2AAI22222222222222244444A222222222
IIIIIIIIIIIIIIIIIIIIIIIIIIIIIAAAA222222222222222244444A222222222
IIIIIIIIIIIIIIIIIIIIIIIIIIIIIAAAAA22222222222222244444A222222222
IIIIIIIIIIIIIIIIIIIIIIIIIIIIIIAAAA22222222222222244444A222222222
IIIIIIIIIIIIIIIIIIIIIIIIIIIIIIIAAA22222222222222244444A222222222
IIIIIIIIIIIIIIIIIIIIIIIIIIIIIIIAAI22222222222222244444A222222222
IIIIIIIIIIIIIIIIIIIIIIIIIIIIIIIAII22222222222222244444A222222222
IIIIIIIIIIIIIIIIIIIIIIIIIIIIIIIAII22222222222222244444I222222222
IIIIIIIIIIIIIIIIIIIIIIIIIIIIIA2A2222222222222222244444I222222222
IIIIIIIIIIIIIIIIIIIIIIIIIIIIIAAA2222222222222222244444I222222222
IIIIIIIIIIIIIIIIIIIIIIIIIIIIIAAAA222222222222222244444I222222222
IIIIIIIIIIIIIIIIIIIIIIIIIIIIIAAAAA22222222222222244444I222222222
IIIIIIIIIIIIIIIIIIIIIIIIIIIIIAAAAA22222222222222244444A222222222
IIIIIIIIIIIIIIIIIIIIIIIIIIIIIAAAAA22222222222222244444I222222222
IIIIIIIIIIIIIIIIIIIIIIIIIIIIIAAAAA222222222222222444444222222222
IIIIIIIIIIIIIIIIIIIIIIIIIIIIIAAAAA22222222222222244444A222222222
IIIIIIIIIIIIIIIIIIIIIIIIIIIIIAAAIA22222222222222244444A222222222
IIIIIIIIIIIIIIIIIIIIIIIIIIIIIAAA2A22222222222222244444A222222222
IIIIIIIIIIIIIIIIIIIIIIIIIIIIIAAAAA22222222222222244444A222222222
IIIIIIIIIIIIIIIIIIIIIIIIIIIIIAAAAI22222222222222244444A222222222
IIIIIIIIIIIIIIIIIIIIIIIIIIIIIAAAII22222222222222244444A222222222
IIIIIIIIIIIIIIIIIIIIIIIIIIIIIAAA2I22222222222222244444A222222222
IIIIIIIIIIIIIIIIIIIIIIIIIIIIIAAA2222222222222222244444A222222222
IIIIIIIIIIIIIIIIIIIIIIIIIIIIIAAAA222222222222222244444A222222222
IIIIIIIIIIIIIIIIIIIIIIIIIIIIIAAAAA22222222222222244444A222222222
IIIIIIIIIIIIIIIIIIIIIIIIIIIIIAAAIA22222222222222244444A222222222
IIIIIIIIIIIIIIIIIIIIIIIIIIIIIIAAIA22222222222222244444A222222222
IIIIIIIIIIIIIIIIIIIIIIIIIIIIIIAAII22222222222222244444A222222222
IIIIIIIIIIIIIIIIIIIIIIIIIIIIIAAA2I22222222222222244444A222222222
IIIIIIIIIIIIIIIIIIIIIIIIIIIIIAAA2222222222222222244444A222222222
IIIIIIIIIIIIIIIIIIIIIIIIIIIIIAAAA222222222222222244444A222222222
IIIIIIIIIIIIIIIIIIIIIIIIIIIIIAAAAA22222222222222244444A222222222
IIIIIIIIIIIIIIIIIIIIIIIIIIIIIAAAAA22222222222222244444I222222222
IIIIIIIIIIIIIIIIIIIIIIIIIIIIIAAAAA22222222222222244444A222222222
IIIIIIIIIIIIIIIIIIIIIIIIIIIIIAAAAA22222222222222244444I222222222
IIIIIIIIIIIIIIIIIIIIIIIIIIIIIAAAAA22222222222222244444A222222222
IIIIIIIIIIIIIIIIIIIIIIIIIIIIIAIAAA22222222222222244444A222222222
IIIIIIIIIIIIIIIIIIIIIIIIIIIIIA2AAA22222222222222244444A222222222
IIIIIIIIIIIIIIIIIIIIIIIIIIIIIAAAAA22222222222222244444A222222222
IIIIIIIIIIIIIIIIIIIIIIIIIIIIIAAAAA22222222222222244444I222222222
IIIIIIIIIIIIIIIIIIIIIIIIIIIIIAAAAA22222222222222244444A222222222
IIIIIIIIIIIIIIIIIIIIIIIIIIIIIAIAAA22222222222222244444A222222222
IIIIIIIIIIIIIIIIIIIIIIIIIIIIIA2AAA22222222222222244444A222222222
IIIIIIIIIIIIIIIIIIIIIIIIIIIIIAAAAA22222222222222244444A222222222
IIIIIIIIIIIIIIIIIIIIIIIIIIIIIAIAAA22222222222222244444A222222222
IIIIIIIIIIIIIIIIIIIIIIIIIIIIIA2AAA22222222222222244444A222222222
IIIIIIIIIIIIIIIIIIIIIIIIIIIIIAAAAA22222222222222244444A222222222
IIIIIIIIIIIIIIIIIIIIIIIIIIIIIAIAAA22222222222222244444A222222222
IIIIIIIIIIIIIIIIIIIIIIIIIIIIIA2AAA22222222222222244444A222222222
IIIIIIIIIIIIIIIIIIIIIIIIIIIIIAAAAA22222222222222244444A222222222
IIIIIIIIIIIIIIIIIIIIIIIIIIIIIAIAAA22222222222222244444A222222222
IIIIIIIIIIIIIIIIIIIIIIIIIIIIIAIAIA22222222222222244444A222222222
IIIIIIIIIIIIIIIIIIIIIIIIIIIIIIIAIA22222222222222244444A222222222
IIIIIIIIIIIIIIIIIIIIIIIIIIIIIA2AIA22222222222222244444A222222222
IIIIIIIIIIIIIIIIIIIIIIIIIIIIIAAAIA22222222222222244444A222222222
IIIIIIIIIIIIIIIIIIIIIIIIIIIIIAAA2A22222222222222244444A222222222
IIIIIIIIIIIIIIIIIIIIIIIIIIIIIAAAAA22222222222222244444A222222222
IIIIIIIIIIIIIIIIIIIIIIIIIIIIIIAAAA22222222222222244444A222222222
IIIIIIIIIIIIIIIIIIIIIIIIIIIIIIAIAA22222222222222244444A222222222
IIIIIIIIIIIIIIIIIIIIIIIIIIIIIAA2AA22222222222222244444A222222222
IIIIIIIIIIIIIIIIIIIIIIIIIIIIIAAAAA22222222222222244444A222222222
IIIIIIIIIIIIIIIIIIIIIIIIIIIIIIAAAA22222222222222244444A222222222
IIIIIIIIIIIIIIIIIIIIIIIIIIIIIAAAAA22222222222222244444A222222222
IIIIIIIIIIIIIIIIIIIIIIIIIIIIIAAAIA22222222222222244444A222222222
IIIIIIIIIIIIIIIIIIIIIIIIIIIIIAAA2A22222222222222244444A222222222
IIIIIIIIIIIIIIIIIIIIIIIIIIIIIAAAAA22222222222222244444A222222222
IIIIIIIIIIIIIIIIIIIIIIIIIIIIIAIAAA22222222222222244444A222222222
IIIIIIIIIIIIIIIIIIIIIIIIIIIIIA2AAA22222222222222244444A222222222
IIIIIIIIIIIIIIIIIIIIIIIIIIIIIAAAAA22222222222222244444A222222222
IIIIIIIIIIIIIIIIIIIIIIIIIIIIIAAAAI22222222222222244444A222222222
IIIIIIIIIIIIIIIIIIIIIIIIIIIIIIAAAI22222222222222244444A222222222
IIIIIIIIIIIIIIIIIIIIIIIIIIIIIAAAAI22222222222222244444A222222222
IIIIIIIIIIIIIIIIIIIIIIIIIIIIIAAAA222222222222222244444A222222222
IIIIIIIIIIIIIIIIIIIIIIIIIIIIIAAAAA22222222222222244444A222222222
IIIIIIIIIIIIIIIIIIIIIIIIIIIIIAIAAA22222222222222244444A222222222
IIIIIIIIIIIIIIIIIIIIIIIIIIIIIAIAIA22222222222222244444A222222222
IIIIIIIIIIIIIIIIIIIIIIIIIIIIIA2A4A22222222222222244444A222222222
IIIIIIIIIIIIIIIIIIIIIIIIIIIIIAAA2A22222222222222244444A222222222
IIIIIIIIIIIIIIIIIIIIIIIIIIIIIAAAAA22222222222222244444A222222222
IIIIIIIIIIIIIIIIIIIIIIIIIIIIIAAAIA22222222222222244444A222222222
IIIIIIIIIIIIIIIIIIIIIIIIIIIIIAAA2A22222222222222244444A222222222
IIIIIIIIIIIIIIIIIIIIIIIIIIIIIAAAAA22222222222222244444A222222222
IIIIIIIIIIIIIIIIIIIIIIIIIIIIIAIAAA22222222222222244444A222222222
IIIIIIIIIIIIIIIIIIIIIIIIIIIIIA2AAA22222222222222244444A222222222
IIIIIIIIIIIIIIIIIIIIIIIIIIIIIAAAAA22222222222222244444A222222222
IIIIIIIIIIIIIIIIIIIIIIIIIIIIIIAAAA22222222222222244444A222222222
IIIIIIIIIIIIIIIIIIIIIIIIIIIIIAAAAA22222222222222244444A222222222
IIIIIIIIIIIIIIIIIIIIIIIIIIIIIIAAAA22222222222222244444A222222222
IIIIIIIIIIIIIIIIIIIIIIIIIIIIIAAAAA22222222222222244444A222222222
IIIIIIIIIIIIIIIIIIIIIIIIIIIIIAIAAA22222222222222244444A222222222
IIIIIIIIIIIIIIIIIIIIIIIIIIIIIAIAAA22222222222222244444I222222222
IIIIIIIIIIIIIIIIIIIIIIIIIIIIIIIAAA22222222222222244444I222222222
IIIIIIIIIIIIIIIIIIIIIIIIIIIIIA2AAA22222222222222244444I222222222
IIIIIIIIIIIIIIIIIIIIIIIIIIIIIAAAAA22222222222222244444I222222222
IIIIIIIIIIIIIIIIIIIIIIIIIIIIIAAAAA22222222222222244444A222222222
IIIIIIIIIIIIIIIIIIIIIIIIIIIIIAAIAA22222222222222244444A222222222
IIIIIIIIIIIIIIIIIIIIIIIIIIIIIAAIAI22222222222222244444A222222222
IIIIIIIIIIIIIIIIIIIIIIIIIIIIIAA2A222222222222222244444A222222222
IIIIIIIIIIIIIIIIIIIIIIIIIIIIIAAAA222222222222222244444A222222222
IIIIIIIIIIIIIIIIIIIIIIIIIIIIIAAAAA22222222222222244444A222222222
IIIIIIIIIIIIIIIIIIIIIIIIIIIIIAAAIA22222222222222244444A222222222
IIIIIIIIIIIIIIIIIIIIIIIIIIIIIAAA2A22222222222222244444A222222222
IIIIIIIIIIIIIIIIIIIIIIIIIIIIIAAAAA22222222222222244444A222222222
IIIIIIIIIIIIIIIIIIIIIIIIIIIIIAIAAA22222222222222244444A222222222
IIIIIIIIIIIIIIIIIIIIIIIIIIIIIA2AAA22222222222222244444A222222222
IIIIIIIIIIIIIIIIIIIIIIIIIIIIIAAAAA22222222222222244444A222222222
IIIIIIIIIIIIIIIIIIIIIIIIIIIIIAIAAA22222222222222244444A222222222
IIIIIIIIIIIIIIIIIIIIIIIIIIIIIAIIAA22222222222222244444A222222222
IIIIIIIIIIIIIIIIIIIIIIIIIIIIIAIIIA22222222222222244444A222222222
IIIIIIIIIIIIIIIIIIIIIIIIIIIIIAIIII22222222222222244444A222222222
IIIIIIIIIIIIIIIIIIIIIIIIIIIIIA222I22222222222222244444A222222222
IIIIIIIIIIIIIIIIIIIIIIIIIIIIIAA22222222222222222244444A222222222
IIIIIIIIIIIIIIIIIIIIIIIIIIIIIAAA2222222222222222244444A222222222
IIIIIIIIIIIIIIIIIIIIIIIIIIIIIAAAA222222222222222244444A222222222
IIIIIIIIIIIIIIIIIIIIIIIIIIIIIAAAAA22222222222222244444A222222222
IIIIIIIIIIIIIIIIIIIIIIIIIIIIIAAAAA22222222222222244444I222222222
IIIIIIIIIIIIIIIIIIIIIIIIIIIIIAAAAA22222222222222244444A222222222
IIIIIIIIIIIIIIIIIIIIIIIIIIIIIAIAAA22222222222222244444A222222222
IIIIIIIIIIIIIIIIIIIIIIIIIIIIIA2AAA22222222222222244444A222222222
IIIIIIIIIIIIIIIIIIIIIIIIIIIIIAAAAA22222222222222244444A222222222
IIIIIIIIIIIIIIIIIIIIIIIIIIIIIAIAAA22222222222222244444A222222222
IIIIIIIIIIIIIIIIIIIIIIIIIIIIIAIAIA22222222222222244444A222222222
IIIIIIIIIIIIIIIIIIIIIIIIIIIIIIIAIA22222222222222244444A222222222
IIIIIIIIIIIIIIIIIIIIIIIIIIIIIA2A2A22222222222222244444A222222222
IIIIIIIIIIIIIIIIIIIIIIIIIIIIIAAA2A22222222222222244444A222222222
IIIIIIIIIIIIIIIIIIIIIIIIIIIIIAAAAA22222222222222244444A222222222
IIIIIIIIIIIIIIIIIIIIIIIIIIIIIIAAAA22222222222222244444A222222222
IIIIIIIIIIIIIIIIIIIIIIIIIIIIIIAAIA22222222222222244444A222222222
IIIIIIIIIIIIIIIIIIIIIIIIIIIIIIAAII22222222222222244444A222222222
IIIIIIIIIIIIIIIIIIIIIIIIIIIIIAAA2I22222222222222244444A222222222
IIIIIIIIIIIIIIIIIIIIIIIIIIIIIAAA2222222222222222244444A222222222
IIIIIIIIIIIIIIIIIIIIIIIIIIIIIAAAA222222222222222244444A222222222
IIIIIIIIIIIIIIIIIIIIIIIIIIIIIAAAAA22222222222222244444A222222222
IIIIIIIIIIIIIIIIIIIIIIIIIIIIIAAAIA22222222222222244444A222222222
IIIIIIIIIIIIIIIIIIIIIIIIIIIIIAAAIA22222222222222244444I222222222
IIIIIIIIIIIIIIIIIIIIIIIIIIIIIAAA2A22222222222222244444I222222222
IIIIIIIIIIIIIIIIIIIIIIIIIIIIIAAAAA22222222222222244444I222222222
IIIIIIIIIIIIIIIIIIIIIIIIIIIIIAAAAA22222222222222244444A222222222
IIIIIIIIIIIIIIIIIIIIIIIIIIIIIAIAAA22222222222222244444A222222222
IIIIIIIIIIIIIIIIIIIIIIIIIIIIIAIAIA22222222222222244444A222222222
IIIIIIIIIIIIIIIIIIIIIIIIIIIIIAIIIA22222222222222244444A222222222
IIIIIIIIIIIIIIIIIIIIIIIIIIIIIAIIII22222222222222244444A222222222
IIIIIIIIIIIIIIIIIIIIIIIIIIIIIAIIII22222222222222244444I222222222
IIIIIIIIIIIIIIIIIIIIIIIIIIIIIA222I22222222222222244444I222222222
IIIIIIIIIIIIIIIIIIIIIIIIIIIIIAA22222222222222222244444I222222222
IIIIIIIIIIIIIIIIIIIIIIIIIIIIIAAA2222222222222222244444I222222222
IIIIIIIIIIIIIIIIIIIIIIIIIIIIIAAAA222222222222222244444I222222222
IIIIIIIIIIIIIIIIIIIIIIIIIIIIIAAAAA22222222222222244444I222222222
IIIIIIIIIIIIIIIIIIIIIIIIIIIIIAAAAA22222222222222244444A222222222
IIIIIIIIIIIIIIIIIIIIIIIIIIIIIAIAAA22222222222222244444A222222222
IIIIIIIIIIIIIIIIIIIIIIIIIIIIIIIAAA22222222222222244444A222222222
IIIIIIIIIIIIIIIIIIIIIIIIIIIIIIIAAI22222222222222244444A222222222
IIIIIIIIIIIIIIIIIIIIIIIIIIIIIA2AAI22222222222222244444A222222222
IIIIIIIIIIIIIIIIIIIIIIIIIIIIIAAAA222222222222222244444A222222222
IIIIIIIIIIIIIIIIIIIIIIIIIIIIIAAAAA22222222222222244444A222222222
IIIIIIIIIIIIIIIIIIIIIIIIIIIIIAIAAA22222222222222244444A222222222
IIIIIIIIIIIIIIIIIIIIIIIIIIIIIAIAIA22222222222222244444A222222222
IIIIIIIIIIIIIIIIIIIIIIIIIIIIIAIAIA22222222222222244444I222222222
IIIIIIIIIIIIIIIIIIIIIIIIIIIIIA2A2A22222222222222244444I222222222
IIIIIIIIIIIIIIIIIIIIIIIIIIIIIAAA2A22222222222222244444I222222222
IIIIIIIIIIIIIIIIIIIIIIIIIIIIIAAAAA22222222222222244444I222222222
IIIIIIIIIIIIIIIIIIIIIIIIIIIIIAAAAA22222222222222244444A222222222
IIIIIIIIIIIIIIIIIIIIIIIIIIIIIAAAAI22222222222222244444A222222222
IIIIIIIIIIIIIIIIIIIIIIIIIIIIIAAAA222222222222222244444A222222222
IIIIIIIIIIIIIIIIIIIIIIIIIIIIIAAAAA22222222222222244444A222222222
IIIIIIIIIIIIIIIIIIIIIIIIIIIIIAAAIA22222222222222244444A222222222
IIIIIIIIIIIIIIIIIIIIIIIIIIIIIAAA4A22222222222222244444A222222222
IIIIIIIIIIIIIIIIIIIIIIIIIIIIIAAA2A22222222222222244444A222222222
IIIIIIIIIIIIIIIIIIIIIIIIIIIIIAAAAA22222222222222244444A222222222
IIIIIIIIIIIIIIIIIIIIIIIIIIIIIAAAAA22222222222222244444I222222222
IIIIIIIIIIIIIIIIIIIIIIIIIIIIIAAAAA22222222222222244444A222222222
IIIIIIIIIIIIIIIIIIIIIIIIIIIIIIAAAA22222222222222244444A222222222
IIIIIIIIIIIIIIIIIIIIIIIIIIIIIIAAAA22222222222222244444I222222222
IIIIIIIIIIIIIIIIIIIIIIIIIIIIIAAAAA22222222222222244444I222222222
IIIIIIIIIIIIIIIIIIIIIIIIIIIIIAAAAA22222222222222244444A222222222
IIIIIIIIIIIIIIIIIIIIIIIIIIIIIAIAAA22222222222222244444A222222222
IIIIIIIIIIIIIIIIIIIIIIIIIIIIIAIAAA22222222222222244444I222222222
IIIIIIIIIIIIIIIIIIIIIIIIIIIIIIIAAA22222222222222244444I222222222
IIIIIIIIIIIIIIIIIIIIIIIIIIIIIIIIAA22222222222222244444I222222222
IIIIIIIIIIIIIIIIIIIIIIIIIIIIIIIIIA22222222222222244444I222222222
IIIIIIIIIIIIIIIIIIIIIIIIIIIIIIIIII22222222222222244444I222222222
IIIIIIIIIIIIIIIIIIIIIIIIIIIIIA222I22222222222222244444I222222222
IIIIIIIIIIIIIIIIIIIIIIIIIIIIIAA22222222222222222244444I222222222
IIIIIIIIIIIIIIIIIIIIIIIIIIIIIAAA2222222222222222244444I222222222
IIIIIIIIIIIIIIIIIIIIIIIIIIIIIAAAA222222222222222244444I222222222
IIIIIIIIIIIIIIIIIIIIIIIIIIIIIAAAAA22222222222222244444I222222222
IIIIIIIIIIIIIIIIIIIIIIIIIIIIIAAAAA22222222222222244444A222222222
IIIIIIIIIIIIIIIIIIIIIIIIIIIIIAAAAA22222222222222244444I222222222
IIIIIIIIIIIIIIIIIIIIIIIIIIIIIAAAAA22222222222222244444A222222222
IIIIIIIIIIIIIIIIIIIIIIIIIIIIIAAAAI22222222222222244444A222222222
IIIIIIIIIIIIIIIIIIIIIIIIIIIIIAAAA222222222222222244444A222222222
IIIIIIIIIIIIIIIIIIIIIIIIIIIIIAAAAA22222222222222244444A222222222
IIIIIIIIIIIIIIIIIIIIIIIIIIIIIIAAAA22222222222222244444A222222222
IIIIIIIIIIIIIIIIIIIIIIIIIIIIIAAAAA22222222222222244444A222222222
IIIIIIIIIIIIIIIIIIIIIIIIIIIIIAIAAA22222222222222244444A222222222
IIIIIIIIIIIIIIIIIIIIIIIIIIIIIAIIAA22222222222222244444A222222222
IIIIIIIIIIIIIIIIIIIIIIIIIIIIIIIIAA22222222222222244444A222222222
IIIIIIIIIIIIIIIIIIIIIIIIIIIIIIIIIA22222222222222244444A222222222
IIIIIIIIIIIIIIIIIIIIIIIIIIIIIIIIIA22222222222222244444I222222222
IIIIIIIIIIIIIIIIIIIIIIIIIIIIIA222A22222222222222244444I222222222
IIIIIIIIIIIIIIIIIIIIIIIIIIIIIAA22A22222222222222244444I222222222
IIIIIIIIIIIIIIIIIIIIIIIIIIIIIAAA2A22222222222222244444I222222222
IIIIIIIIIIIIIIIIIIIIIIIIIIIIIAAAAA22222222222222244444I222222222
IIIIIIIIIIIIIIIIIIIIIIIIIIIIIAAAAA22222222222222244444A222222222
IIIIIIIIIIIIIIIIIIIIIIIIIIIIIAIAAA22222222222222244444A222222222
IIIIIIIIIIIIIIIIIIIIIIIIIIIIIA2AAA22222222222222244444A222222222
IIIIIIIIIIIIIIIIIIIIIIIIIIIIIAAAAA22222222222222244444A222222222
IIIIIIIIIIIIIIIIIIIIIIIIIIIIIAIAAA22222222222222244444A222222222
IIIIIIIIIIIIIIIIIIIIIIIIIIIIIIIAAA22222222222222244444A222222222
IIIIIIIIIIIIIIIIIIIIIIIIIIIIIA2AAA22222222222222244444A222222222
IIIIIIIIIIIIIIIIIIIIIIIIIIIIIAAAAA22222222222222244444A222222222
IIIIIIIIIIIIIIIIIIIIIIIIIIIIIAIAAA22222222222222244444A222222222
IIIIIIIIIIIIIIIIIIIIIIIIIIIIIA2AAA22222222222222244444A222222222
IIIIIIIIIIIIIIIIIIIIIIIIIIIIIAAAAA22222222222222244444A222222222
IIIIIIIIIIIIIIIIIIIIIIIIIIIIIAIAAA22222222222222244444A222222222
IIIIIIIIIIIIIIIIIIIIIIIIIIIIIAIAAI22222222222222244444A222222222
IIIIIIIIIIIIIIIIIIIIIIIIIIIIIA2AAI22222222222222244444A222222222
IIIIIIIIIIIIIIIIIIIIIIIIIIIIIAAAA222222222222222244444A222222222
IIIIIIIIIIIIIIIIIIIIIIIIIIIIIAAAAA22222222222222244444A222222222
IIIIIIIIIIIIIIIIIIIIIIIIIIIIIAIAAA22222222222222244444A222222222
IIIIIIIIIIIIIIIIIIIIIIIIIIIIIAIAIA22222222222222244444A222222222
IIIIIIIIIIIIIIIIIIIIIIIIIIIIIA2A2A22222222222222244444A222222222
IIIIIIIIIIIIIIIIIIIIIIIIIIIIIAAA2A22222222222222244444A222222222
IIIIIIIIIIIIIIIIIIIIIIIIIIIIIAAAAA22222222222222244444A222222222
IIIIIIIIIIIIIIIIIIIIIIIIIIIIIAAAAI22222222222222244444A222222222
IIIIIIIIIIIIIIIIIIIIIIIIIIIIIAAAA422222222222222244444A222222222
IIIIIIIIIIIIIIIIIIIIIIIIIIIIIAAAAA22222222222222244444A222222222
[MLOP] Prefetch Degree Mean: 11.31284
[MLOP] Prefetch Degree SD: 2.86699
[MLOP] Max Score Left Mean (%): 41.61230
[MLOP] Max Score Left SD (%): 15.17808
[MLOP] Max Score Right Mean (%): 79.95875
[MLOP] Max Score Right SD (%): 9.24962

Channel_0_RQ_row_buffer_hit 851721
Channel_0_RQ_row_buffer_miss 1580491
Channel_0_WQ_row_buffer_hit 34482
Channel_0_WQ_row_buffer_miss 330407
Channel_0_WQ_full 0
Channel_0_dbus_congested 1212668

Channel_1_RQ_row_buffer_hit 854381
Channel_1_RQ_row_buffer_miss 1600211
Channel_1_WQ_row_buffer_hit 34547
Channel_1_WQ_row_buffer_miss 330970
Channel_1_WQ_full 0
Channel_1_dbus_congested 1219225

avg_congested_cycle 10

DRAM_bw_pochs 2828632
DRAM_bw_level_0 2486553
DRAM_bw_level_1 229116
DRAM_bw_level_2 67449
DRAM_bw_level_3 45514
