*************************************************
   ChampSim Multicore Out-of-Order Simulator
   Last compiled: Mar 31 2025 20:14:32
*************************************************
parsing config file: /data3/config/spp_dev2.ini

trace_0 /data3/STREAMING/traces/streaming_phase1_core0.trace.xz
trace_1 /data3/STREAMING/traces/streaming_phase1_core1.trace.xz
trace_2 /data3/STREAMING/traces/streaming_phase1_core2.trace.xz
trace_3 /data3/STREAMING/traces/streaming_phase1_core3.trace.xz
adding L2C_PREFETCHER: SPP_dev2
Initialize SIGNATURE TABLE
ST_SET: 1
ST_WAY: 256
ST_TAG_BIT: 16
ST_TAG_MASK: ffff

Initialize PATTERN TABLE
PT_SET: 512
PT_WAY: 4
SIG_DELTA_BIT: 7
C_SIG_BIT: 4
C_DELTA_BIT: 4

Initialize PREFETCH FILTER
FILTER_SET: 1024
fill_threshold: 90
pf_threshold: 40

adding L2C_PREFETCHER: SPP_dev2
Initialize SIGNATURE TABLE
ST_SET: 1
ST_WAY: 256
ST_TAG_BIT: 16
ST_TAG_MASK: ffff

Initialize PATTERN TABLE
PT_SET: 512
PT_WAY: 4
SIG_DELTA_BIT: 7
C_SIG_BIT: 4
C_DELTA_BIT: 4

Initialize PREFETCH FILTER
FILTER_SET: 1024
fill_threshold: 90
pf_threshold: 40

adding L2C_PREFETCHER: SPP_dev2
Initialize SIGNATURE TABLE
ST_SET: 1
ST_WAY: 256
ST_TAG_BIT: 16
ST_TAG_MASK: ffff

Initialize PATTERN TABLE
PT_SET: 512
PT_WAY: 4
SIG_DELTA_BIT: 7
C_SIG_BIT: 4
C_DELTA_BIT: 4

Initialize PREFETCH FILTER
FILTER_SET: 1024
fill_threshold: 90
pf_threshold: 40

adding L2C_PREFETCHER: SPP_dev2
Initialize SIGNATURE TABLE
ST_SET: 1
ST_WAY: 256
ST_TAG_BIT: 16
ST_TAG_MASK: ffff

Initialize PATTERN TABLE
PT_SET: 512
PT_WAY: 4
SIG_DELTA_BIT: 7
C_SIG_BIT: 4
C_DELTA_BIT: 4

Initialize PREFETCH FILTER
FILTER_SET: 1024
fill_threshold: 90
pf_threshold: 40

Initialize SHIP state
warmup_instructions 50000000
simulation_instructions 150000000
champsim_seed 8850
measure_ipc 0
measure_ipc_epoch 1000
measure_dram_bw 1
measure_dram_bw_epoch 256
measure_cache_acc 1
measure_cache_acc_epoch 1024
l1d_perfect 0
l2c_perfect 0
llc_perfect 0
l1d_semi_perfect 0
l2c_semi_perfect 0
llc_semi_perfect 0
semi_perfect_cache_page_buffer_size 64

num_cpus 4
cpu_freq 4000
dram_io_freq 2400
page_size 4096
block_size 64
max_read_per_cycle 8
max_fill_per_cycle 1
dram_channels 2
log2_dram_channels 1
dram_ranks 1
dram_banks 8
dram_rows 65536
dram_columns 128
dram_row_size 8
dram_size 8192
dram_pages 2097152

fetch_width 6
decode_width 6
exec_width 4
lq_width 2
sq_width 2
retire_width 4
scheduler_size 128
branch_mispredict_penalty 20
rob_size 256
lq_size 72
sq_size 56
num_instr_destinations_sparc 4
num_instr_destinations 2
num_instr_sources 4

itlb_set 16
itlb_way 8
itlb_rq_size 16
itlb_wq_size 16
itlb_pq_size 0
itlb_mshr_size 8
itlb_latency 1

dtlb_set 16
dtlb_way 4
dtlb_rq_size 16
dtlb_wq_size 16
dtlb_pq_size 0
dtlb_mshr_size 8
dtlb_latency 1

stlb_set 128
stlb_way 12
stlb_rq_size 32
stlb_wq_size 32
stlb_pq_size 0
stlb_mshr_size 16
stlb_latency 8

l1i_size 32
l1i_set 64
l1i_way 8
l1i_rq_size 64
l1i_wq_size 64
l1i_pq_size 8
l1i_mshr_size 8
l1i_latency 1

l1d_size 32
l1d_set 64
l1d_way 8
l1d_rq_size 64
l1d_wq_size 64
l1d_pq_size 8
l1d_mshr_size 16
l1d_latency 4

l2c_size 256
l2c_set 512
l2c_way 8
l2c_rq_size 32
l2c_wq_size 32
l2c_pq_size 32
l2c_mshr_size 32
l2c_latency 10

llc_size 8192
llc_set 8192
llc_way 16
llc_rq_size 128
llc_wq_size 128
llc_pq_size 128
llc_mshr_size 256
llc_latency 20

dram_channel_width 8
dram_wq_size 64
dram_rq_size 64
tRP 15
tRCD 15
tCAS 12.5
dram_dbus_turn_around_time 30
dram_write_high_wm 56
dram_write_low_wm 48
min_dram_writes_per_switch 16
dram_mtps 2400
dram_dbus_return_time 13


Heartbeat CPU  2 instructions:    1000003 cycles:     309431 heartbeat IPC: 3.23175 cumulative IPC: 3.23175 (Simulation time: 0 hr 0 min 4 sec) 
Heartbeat CPU  1 instructions:    1000000 cycles:     579430 heartbeat IPC: 1.72583 cumulative IPC: 1.72583 (Simulation time: 0 hr 0 min 8 sec) 
Heartbeat CPU  3 instructions:    1000000 cycles:     600990 heartbeat IPC: 1.66392 cumulative IPC: 1.66392 (Simulation time: 0 hr 0 min 9 sec) 
Heartbeat CPU  0 instructions:    1000003 cycles:     602395 heartbeat IPC: 1.66005 cumulative IPC: 1.66005 (Simulation time: 0 hr 0 min 9 sec) 
Heartbeat CPU  2 instructions:    2000002 cycles:     625612 heartbeat IPC: 3.16274 cumulative IPC: 3.19687 (Simulation time: 0 hr 0 min 9 sec) 
Heartbeat CPU  2 instructions:    3000001 cycles:     929625 heartbeat IPC: 3.28933 cumulative IPC: 3.22711 (Simulation time: 0 hr 0 min 14 sec) 
Heartbeat CPU  1 instructions:    2000001 cycles:    1062290 heartbeat IPC: 2.07100 cumulative IPC: 1.88273 (Simulation time: 0 hr 0 min 16 sec) 
Heartbeat CPU  3 instructions:    2000000 cycles:    1096562 heartbeat IPC: 2.01787 cumulative IPC: 1.82388 (Simulation time: 0 hr 0 min 16 sec) 
Heartbeat CPU  0 instructions:    2000000 cycles:    1123963 heartbeat IPC: 1.91729 cumulative IPC: 1.77942 (Simulation time: 0 hr 0 min 17 sec) 
Heartbeat CPU  2 instructions:    4000000 cycles:    1231259 heartbeat IPC: 3.31527 cumulative IPC: 3.24871 (Simulation time: 0 hr 0 min 19 sec) 
Heartbeat CPU  2 instructions:    5000000 cycles:    1540337 heartbeat IPC: 3.23543 cumulative IPC: 3.24604 (Simulation time: 0 hr 0 min 23 sec) 
Heartbeat CPU  1 instructions:    3000001 cycles:    1542915 heartbeat IPC: 2.08062 cumulative IPC: 1.94437 (Simulation time: 0 hr 0 min 23 sec) 
Heartbeat CPU  0 instructions:    3000003 cycles:    1617457 heartbeat IPC: 2.02637 cumulative IPC: 1.85477 (Simulation time: 0 hr 0 min 25 sec) 
Heartbeat CPU  3 instructions:    3000003 cycles:    1617858 heartbeat IPC: 1.91830 cumulative IPC: 1.85431 (Simulation time: 0 hr 0 min 25 sec) 
Heartbeat CPU  2 instructions:    6000000 cycles:    1848409 heartbeat IPC: 3.24599 cumulative IPC: 3.24603 (Simulation time: 0 hr 0 min 28 sec) 
Heartbeat CPU  1 instructions:    4000000 cycles:    1991300 heartbeat IPC: 2.23022 cumulative IPC: 2.00874 (Simulation time: 0 hr 0 min 30 sec) 
Heartbeat CPU  0 instructions:    4000000 cycles:    2112848 heartbeat IPC: 2.01860 cumulative IPC: 1.89318 (Simulation time: 0 hr 0 min 32 sec) 
Heartbeat CPU  3 instructions:    4000000 cycles:    2116353 heartbeat IPC: 2.00603 cumulative IPC: 1.89004 (Simulation time: 0 hr 0 min 32 sec) 
Heartbeat CPU  1 instructions:    5000002 cycles:    2448650 heartbeat IPC: 2.18651 cumulative IPC: 2.04194 (Simulation time: 0 hr 0 min 36 sec) 
Heartbeat CPU  3 instructions:    5000000 cycles:    2603330 heartbeat IPC: 2.05349 cumulative IPC: 1.92062 (Simulation time: 0 hr 0 min 38 sec) 
Heartbeat CPU  2 instructions:    7000000 cycles:    2636662 heartbeat IPC: 1.26863 cumulative IPC: 2.65487 (Simulation time: 0 hr 0 min 39 sec) 
Heartbeat CPU  0 instructions:    5000002 cycles:    2672579 heartbeat IPC: 1.78658 cumulative IPC: 1.87085 (Simulation time: 0 hr 0 min 39 sec) 
Heartbeat CPU  1 instructions:    6000001 cycles:    2917600 heartbeat IPC: 2.13242 cumulative IPC: 2.05649 (Simulation time: 0 hr 0 min 43 sec) 
Heartbeat CPU  3 instructions:    6000000 cycles:    2978092 heartbeat IPC: 2.66836 cumulative IPC: 2.01471 (Simulation time: 0 hr 0 min 43 sec) 
Heartbeat CPU  0 instructions:    6000001 cycles:    3204780 heartbeat IPC: 1.87899 cumulative IPC: 1.87220 (Simulation time: 0 hr 0 min 46 sec) 
Heartbeat CPU  2 instructions:    8000000 cycles:    3295936 heartbeat IPC: 1.51682 cumulative IPC: 2.42723 (Simulation time: 0 hr 0 min 47 sec) 
Heartbeat CPU  1 instructions:    7000001 cycles:    3526630 heartbeat IPC: 1.64196 cumulative IPC: 1.98490 (Simulation time: 0 hr 0 min 49 sec) 
Heartbeat CPU  3 instructions:    7000000 cycles:    3549767 heartbeat IPC: 1.74925 cumulative IPC: 1.97196 (Simulation time: 0 hr 0 min 50 sec) 
Heartbeat CPU  0 instructions:    7000001 cycles:    3799886 heartbeat IPC: 1.68037 cumulative IPC: 1.84216 (Simulation time: 0 hr 0 min 53 sec) 
Heartbeat CPU  2 instructions:    9000000 cycles:    3924461 heartbeat IPC: 1.59103 cumulative IPC: 2.29331 (Simulation time: 0 hr 0 min 54 sec) 
Heartbeat CPU  3 instructions:    8000000 cycles:    4048716 heartbeat IPC: 2.00421 cumulative IPC: 1.97594 (Simulation time: 0 hr 0 min 56 sec) 
Heartbeat CPU  1 instructions:    8000000 cycles:    4076344 heartbeat IPC: 1.81913 cumulative IPC: 1.96254 (Simulation time: 0 hr 0 min 56 sec) 
Heartbeat CPU  0 instructions:    8000000 cycles:    4337288 heartbeat IPC: 1.86080 cumulative IPC: 1.84447 (Simulation time: 0 hr 0 min 59 sec) 
Heartbeat CPU  2 instructions:   10000001 cycles:    4536145 heartbeat IPC: 1.63483 cumulative IPC: 2.20452 (Simulation time: 0 hr 1 min 2 sec) 
Heartbeat CPU  3 instructions:    9000000 cycles:    4577345 heartbeat IPC: 1.89169 cumulative IPC: 1.96621 (Simulation time: 0 hr 1 min 2 sec) 
Heartbeat CPU  1 instructions:    9000002 cycles:    4609553 heartbeat IPC: 1.87544 cumulative IPC: 1.95247 (Simulation time: 0 hr 1 min 3 sec) 
Heartbeat CPU  0 instructions:    9000000 cycles:    4853488 heartbeat IPC: 1.93723 cumulative IPC: 1.85434 (Simulation time: 0 hr 1 min 6 sec) 
Heartbeat CPU  2 instructions:   11000002 cycles:    5045581 heartbeat IPC: 1.96296 cumulative IPC: 2.18013 (Simulation time: 0 hr 1 min 8 sec) 
Heartbeat CPU  3 instructions:   10000000 cycles:    5130546 heartbeat IPC: 1.80766 cumulative IPC: 1.94911 (Simulation time: 0 hr 1 min 10 sec) 
Heartbeat CPU  1 instructions:   10000001 cycles:    5187125 heartbeat IPC: 1.73138 cumulative IPC: 1.92785 (Simulation time: 0 hr 1 min 10 sec) 
Heartbeat CPU  2 instructions:   12000000 cycles:    5355114 heartbeat IPC: 3.23067 cumulative IPC: 2.24085 (Simulation time: 0 hr 1 min 13 sec) 
Heartbeat CPU  0 instructions:   10000003 cycles:    5390164 heartbeat IPC: 1.86333 cumulative IPC: 1.85523 (Simulation time: 0 hr 1 min 13 sec) 
Heartbeat CPU  3 instructions:   11000000 cycles:    5659462 heartbeat IPC: 1.89066 cumulative IPC: 1.94365 (Simulation time: 0 hr 1 min 17 sec) 
Heartbeat CPU  2 instructions:   13000001 cycles:    5660280 heartbeat IPC: 3.27691 cumulative IPC: 2.29671 (Simulation time: 0 hr 1 min 17 sec) 
Heartbeat CPU  1 instructions:   11000001 cycles:    5720433 heartbeat IPC: 1.87509 cumulative IPC: 1.92293 (Simulation time: 0 hr 1 min 18 sec) 
Heartbeat CPU  0 instructions:   11000002 cycles:    5930205 heartbeat IPC: 1.85171 cumulative IPC: 1.85491 (Simulation time: 0 hr 1 min 22 sec) 
Heartbeat CPU  2 instructions:   14000000 cycles:    5965894 heartbeat IPC: 3.27210 cumulative IPC: 2.34667 (Simulation time: 0 hr 1 min 22 sec) 
Heartbeat CPU  3 instructions:   12000000 cycles:    6147997 heartbeat IPC: 2.04694 cumulative IPC: 1.95186 (Simulation time: 0 hr 1 min 25 sec) 
Heartbeat CPU  1 instructions:   12000000 cycles:    6190759 heartbeat IPC: 2.12618 cumulative IPC: 1.93837 (Simulation time: 0 hr 1 min 26 sec) 
Heartbeat CPU  2 instructions:   15000003 cycles:    6270896 heartbeat IPC: 3.27868 cumulative IPC: 2.39200 (Simulation time: 0 hr 1 min 27 sec) 
Heartbeat CPU  0 instructions:   12000000 cycles:    6426730 heartbeat IPC: 2.01399 cumulative IPC: 1.86720 (Simulation time: 0 hr 1 min 30 sec) 
Heartbeat CPU  2 instructions:   16000000 cycles:    6571033 heartbeat IPC: 3.33180 cumulative IPC: 2.43493 (Simulation time: 0 hr 1 min 32 sec) 
Heartbeat CPU  3 instructions:   13000000 cycles:    6633644 heartbeat IPC: 2.05911 cumulative IPC: 1.95971 (Simulation time: 0 hr 1 min 33 sec) 
Heartbeat CPU  1 instructions:   13000002 cycles:    6670111 heartbeat IPC: 2.08615 cumulative IPC: 1.94899 (Simulation time: 0 hr 1 min 34 sec) 
Heartbeat CPU  2 instructions:   17000000 cycles:    6869209 heartbeat IPC: 3.35372 cumulative IPC: 2.47481 (Simulation time: 0 hr 1 min 37 sec) 
Heartbeat CPU  0 instructions:   13000001 cycles:    6921821 heartbeat IPC: 2.01983 cumulative IPC: 1.87812 (Simulation time: 0 hr 1 min 38 sec) 
Heartbeat CPU  3 instructions:   14000000 cycles:    7098529 heartbeat IPC: 2.15107 cumulative IPC: 1.97224 (Simulation time: 0 hr 1 min 41 sec) 
Heartbeat CPU  1 instructions:   14000000 cycles:    7122511 heartbeat IPC: 2.21043 cumulative IPC: 1.96560 (Simulation time: 0 hr 1 min 41 sec) 
Heartbeat CPU  2 instructions:   18000000 cycles:    7165061 heartbeat IPC: 3.38007 cumulative IPC: 2.51219 (Simulation time: 0 hr 1 min 42 sec) 
Heartbeat CPU  0 instructions:   14000002 cycles:    7398318 heartbeat IPC: 2.09865 cumulative IPC: 1.89232 (Simulation time: 0 hr 1 min 46 sec) 
Heartbeat CPU  2 instructions:   19000001 cycles:    7461982 heartbeat IPC: 3.36790 cumulative IPC: 2.54624 (Simulation time: 0 hr 1 min 47 sec) 
Heartbeat CPU  1 instructions:   15000001 cycles:    7592932 heartbeat IPC: 2.12576 cumulative IPC: 1.97552 (Simulation time: 0 hr 1 min 49 sec) 
Heartbeat CPU  3 instructions:   15000000 cycles:    7613987 heartbeat IPC: 1.94002 cumulative IPC: 1.97006 (Simulation time: 0 hr 1 min 50 sec) 
Heartbeat CPU  2 instructions:   20000000 cycles:    7758885 heartbeat IPC: 3.36810 cumulative IPC: 2.57769 (Simulation time: 0 hr 1 min 52 sec) 
Heartbeat CPU  0 instructions:   15000002 cycles:    7875866 heartbeat IPC: 2.09403 cumulative IPC: 1.90455 (Simulation time: 0 hr 1 min 54 sec) 
Heartbeat CPU  2 instructions:   21000002 cycles:    8056092 heartbeat IPC: 3.36467 cumulative IPC: 2.60672 (Simulation time: 0 hr 1 min 57 sec) 
Heartbeat CPU  1 instructions:   16000000 cycles:    8068243 heartbeat IPC: 2.10388 cumulative IPC: 1.98308 (Simulation time: 0 hr 1 min 57 sec) 
Heartbeat CPU  3 instructions:   16000000 cycles:    8095042 heartbeat IPC: 2.07876 cumulative IPC: 1.97652 (Simulation time: 0 hr 1 min 58 sec) 
Heartbeat CPU  0 instructions:   16000000 cycles:    8341979 heartbeat IPC: 2.14540 cumulative IPC: 1.91801 (Simulation time: 0 hr 2 min 2 sec) 
Heartbeat CPU  2 instructions:   22000000 cycles:    8371298 heartbeat IPC: 3.17252 cumulative IPC: 2.62803 (Simulation time: 0 hr 2 min 2 sec) 
Heartbeat CPU  1 instructions:   17000002 cycles:    8550942 heartbeat IPC: 2.07169 cumulative IPC: 1.98809 (Simulation time: 0 hr 2 min 5 sec) 
Heartbeat CPU  3 instructions:   17000000 cycles:    8573650 heartbeat IPC: 2.08939 cumulative IPC: 1.98282 (Simulation time: 0 hr 2 min 6 sec) 
Heartbeat CPU  2 instructions:   23000000 cycles:    8668585 heartbeat IPC: 3.36375 cumulative IPC: 2.65326 (Simulation time: 0 hr 2 min 7 sec) 
Heartbeat CPU  0 instructions:   17000000 cycles:    8835313 heartbeat IPC: 2.02702 cumulative IPC: 1.92410 (Simulation time: 0 hr 2 min 10 sec) 
Heartbeat CPU  2 instructions:   24000000 cycles:    8970027 heartbeat IPC: 3.31739 cumulative IPC: 2.67558 (Simulation time: 0 hr 2 min 12 sec) 
Heartbeat CPU  1 instructions:   18000000 cycles:    9069090 heartbeat IPC: 1.92995 cumulative IPC: 1.98476 (Simulation time: 0 hr 2 min 14 sec) 
Heartbeat CPU  3 instructions:   18000000 cycles:    9082258 heartbeat IPC: 1.96615 cumulative IPC: 1.98189 (Simulation time: 0 hr 2 min 14 sec) 
Heartbeat CPU  0 instructions:   18000002 cycles:    9285554 heartbeat IPC: 2.22104 cumulative IPC: 1.93850 (Simulation time: 0 hr 2 min 17 sec) 
Heartbeat CPU  2 instructions:   25000000 cycles:    9289174 heartbeat IPC: 3.13335 cumulative IPC: 2.69130 (Simulation time: 0 hr 2 min 17 sec) 
Heartbeat CPU  1 instructions:   19000000 cycles:    9578092 heartbeat IPC: 1.96463 cumulative IPC: 1.98369 (Simulation time: 0 hr 2 min 22 sec) 
Heartbeat CPU  2 instructions:   26000001 cycles:    9583058 heartbeat IPC: 3.40271 cumulative IPC: 2.71312 (Simulation time: 0 hr 2 min 22 sec) 
Heartbeat CPU  3 instructions:   19000003 cycles:    9591756 heartbeat IPC: 1.96272 cumulative IPC: 1.98087 (Simulation time: 0 hr 2 min 22 sec) 
Heartbeat CPU  0 instructions:   19000001 cycles:    9724983 heartbeat IPC: 2.27568 cumulative IPC: 1.95373 (Simulation time: 0 hr 2 min 24 sec) 
Heartbeat CPU  2 instructions:   27000003 cycles:    9879154 heartbeat IPC: 3.37729 cumulative IPC: 2.73303 (Simulation time: 0 hr 2 min 27 sec) 
Heartbeat CPU  1 instructions:   20000000 cycles:   10061276 heartbeat IPC: 2.06960 cumulative IPC: 1.98782 (Simulation time: 0 hr 2 min 30 sec) 
Heartbeat CPU  3 instructions:   20000000 cycles:   10095082 heartbeat IPC: 1.98678 cumulative IPC: 1.98116 (Simulation time: 0 hr 2 min 30 sec) 
Heartbeat CPU  2 instructions:   28000000 cycles:   10177436 heartbeat IPC: 3.35252 cumulative IPC: 2.75118 (Simulation time: 0 hr 2 min 32 sec) 
Heartbeat CPU  0 instructions:   20000000 cycles:   10238042 heartbeat IPC: 1.94909 cumulative IPC: 1.95350 (Simulation time: 0 hr 2 min 33 sec) 
Heartbeat CPU  2 instructions:   29000003 cycles:   10474397 heartbeat IPC: 3.36746 cumulative IPC: 2.76866 (Simulation time: 0 hr 2 min 37 sec) 
Heartbeat CPU  1 instructions:   21000001 cycles:   10559149 heartbeat IPC: 2.00855 cumulative IPC: 1.98880 (Simulation time: 0 hr 2 min 38 sec) 
Heartbeat CPU  3 instructions:   21000001 cycles:   10579821 heartbeat IPC: 2.06297 cumulative IPC: 1.98491 (Simulation time: 0 hr 2 min 38 sec) 
Heartbeat CPU  0 instructions:   21000001 cycles:   10731874 heartbeat IPC: 2.02498 cumulative IPC: 1.95679 (Simulation time: 0 hr 2 min 41 sec) 
Heartbeat CPU  2 instructions:   30000000 cycles:   10767715 heartbeat IPC: 3.40926 cumulative IPC: 2.78611 (Simulation time: 0 hr 2 min 41 sec) 
Heartbeat CPU  1 instructions:   22000000 cycles:   11034411 heartbeat IPC: 2.10410 cumulative IPC: 1.99376 (Simulation time: 0 hr 2 min 46 sec) 
Heartbeat CPU  2 instructions:   31000001 cycles:   11064199 heartbeat IPC: 3.37287 cumulative IPC: 2.80183 (Simulation time: 0 hr 2 min 46 sec) 
Heartbeat CPU  3 instructions:   22000002 cycles:   11071771 heartbeat IPC: 2.03273 cumulative IPC: 1.98704 (Simulation time: 0 hr 2 min 46 sec) 
Heartbeat CPU  0 instructions:   22000000 cycles:   11214944 heartbeat IPC: 2.07009 cumulative IPC: 1.96167 (Simulation time: 0 hr 2 min 49 sec) 
Heartbeat CPU  2 instructions:   32000000 cycles:   11361596 heartbeat IPC: 3.36251 cumulative IPC: 2.81651 (Simulation time: 0 hr 2 min 52 sec) 
Heartbeat CPU  1 instructions:   23000002 cycles:   11499102 heartbeat IPC: 2.15197 cumulative IPC: 2.00016 (Simulation time: 0 hr 2 min 54 sec) 
Heartbeat CPU  3 instructions:   23000002 cycles:   11567594 heartbeat IPC: 2.01685 cumulative IPC: 1.98831 (Simulation time: 0 hr 2 min 55 sec) 
Heartbeat CPU  2 instructions:   33000001 cycles:   11658940 heartbeat IPC: 3.36311 cumulative IPC: 2.83045 (Simulation time: 0 hr 2 min 57 sec) 
Heartbeat CPU  0 instructions:   23000000 cycles:   11674324 heartbeat IPC: 2.17685 cumulative IPC: 1.97014 (Simulation time: 0 hr 2 min 57 sec) 
Heartbeat CPU  2 instructions:   34000002 cycles:   11960759 heartbeat IPC: 3.31325 cumulative IPC: 2.84263 (Simulation time: 0 hr 3 min 2 sec) 
Heartbeat CPU  1 instructions:   24000000 cycles:   11979358 heartbeat IPC: 2.08222 cumulative IPC: 2.00345 (Simulation time: 0 hr 3 min 2 sec) 
Heartbeat CPU  3 instructions:   24000000 cycles:   12025617 heartbeat IPC: 2.18329 cumulative IPC: 1.99574 (Simulation time: 0 hr 3 min 3 sec) 
Heartbeat CPU  0 instructions:   24000000 cycles:   12134205 heartbeat IPC: 2.17448 cumulative IPC: 1.97788 (Simulation time: 0 hr 3 min 5 sec) 
Heartbeat CPU  2 instructions:   35000002 cycles:   12254670 heartbeat IPC: 3.40239 cumulative IPC: 2.85605 (Simulation time: 0 hr 3 min 7 sec) 
Heartbeat CPU  1 instructions:   25000003 cycles:   12454887 heartbeat IPC: 2.10293 cumulative IPC: 2.00724 (Simulation time: 0 hr 3 min 10 sec) 
Heartbeat CPU  3 instructions:   25000000 cycles:   12490511 heartbeat IPC: 2.15103 cumulative IPC: 2.00152 (Simulation time: 0 hr 3 min 11 sec) 
Heartbeat CPU  2 instructions:   36000000 cycles:   12557113 heartbeat IPC: 3.30640 cumulative IPC: 2.86690 (Simulation time: 0 hr 3 min 12 sec) 
Heartbeat CPU  0 instructions:   25000003 cycles:   12607028 heartbeat IPC: 2.11496 cumulative IPC: 1.98302 (Simulation time: 0 hr 3 min 13 sec) 
Heartbeat CPU  1 instructions:   26000000 cycles:   12934768 heartbeat IPC: 2.08384 cumulative IPC: 2.01009 (Simulation time: 0 hr 3 min 18 sec) 
Heartbeat CPU  3 instructions:   26000003 cycles:   12979422 heartbeat IPC: 2.04537 cumulative IPC: 2.00317 (Simulation time: 0 hr 3 min 18 sec) 
Heartbeat CPU  2 instructions:   37000001 cycles:   13060439 heartbeat IPC: 1.98679 cumulative IPC: 2.83298 (Simulation time: 0 hr 3 min 19 sec) 
Heartbeat CPU  0 instructions:   26000000 cycles:   13088731 heartbeat IPC: 2.07596 cumulative IPC: 1.98644 (Simulation time: 0 hr 3 min 20 sec) 
Heartbeat CPU  1 instructions:   27000001 cycles:   13405063 heartbeat IPC: 2.12633 cumulative IPC: 2.01416 (Simulation time: 0 hr 3 min 24 sec) 
Heartbeat CPU  3 instructions:   27000001 cycles:   13480605 heartbeat IPC: 1.99528 cumulative IPC: 2.00288 (Simulation time: 0 hr 3 min 25 sec) 
Heartbeat CPU  0 instructions:   27000003 cycles:   13585189 heartbeat IPC: 2.01428 cumulative IPC: 1.98746 (Simulation time: 0 hr 3 min 26 sec) 
Heartbeat CPU  2 instructions:   38000003 cycles:   13653825 heartbeat IPC: 1.68525 cumulative IPC: 2.78310 (Simulation time: 0 hr 3 min 27 sec) 
Heartbeat CPU  1 instructions:   28000000 cycles:   13894178 heartbeat IPC: 2.04451 cumulative IPC: 2.01523 (Simulation time: 0 hr 3 min 31 sec) 
Heartbeat CPU  3 instructions:   28000000 cycles:   13975413 heartbeat IPC: 2.02098 cumulative IPC: 2.00352 (Simulation time: 0 hr 3 min 32 sec) 
Heartbeat CPU  0 instructions:   28000000 cycles:   14068530 heartbeat IPC: 2.06893 cumulative IPC: 1.99026 (Simulation time: 0 hr 3 min 33 sec) 
Heartbeat CPU  2 instructions:   39000002 cycles:   14184323 heartbeat IPC: 1.88502 cumulative IPC: 2.74951 (Simulation time: 0 hr 3 min 35 sec) 
Heartbeat CPU  1 instructions:   29000000 cycles:   14385125 heartbeat IPC: 2.03688 cumulative IPC: 2.01597 (Simulation time: 0 hr 3 min 38 sec) 
Heartbeat CPU  3 instructions:   29000000 cycles:   14477542 heartbeat IPC: 1.99152 cumulative IPC: 2.00310 (Simulation time: 0 hr 3 min 39 sec) 
Heartbeat CPU  0 instructions:   29000001 cycles:   14537080 heartbeat IPC: 2.13425 cumulative IPC: 1.99490 (Simulation time: 0 hr 3 min 40 sec) 
Heartbeat CPU  2 instructions:   40000000 cycles:   14708345 heartbeat IPC: 1.90831 cumulative IPC: 2.71954 (Simulation time: 0 hr 3 min 43 sec) 
Heartbeat CPU  1 instructions:   30000001 cycles:   14878302 heartbeat IPC: 2.02767 cumulative IPC: 2.01636 (Simulation time: 0 hr 3 min 45 sec) 
Heartbeat CPU  3 instructions:   30000001 cycles:   14946540 heartbeat IPC: 2.13221 cumulative IPC: 2.00715 (Simulation time: 0 hr 3 min 46 sec) 
Heartbeat CPU  0 instructions:   30000001 cycles:   15024315 heartbeat IPC: 2.05240 cumulative IPC: 1.99676 (Simulation time: 0 hr 3 min 47 sec) 
Heartbeat CPU  2 instructions:   41000001 cycles:   15295355 heartbeat IPC: 1.70355 cumulative IPC: 2.68055 (Simulation time: 0 hr 3 min 51 sec) 
Heartbeat CPU  1 instructions:   31000002 cycles:   15341034 heartbeat IPC: 2.16108 cumulative IPC: 2.02072 (Simulation time: 0 hr 3 min 52 sec) 
Heartbeat CPU  3 instructions:   31000001 cycles:   15397109 heartbeat IPC: 2.21942 cumulative IPC: 2.01337 (Simulation time: 0 hr 3 min 53 sec) 
Heartbeat CPU  0 instructions:   31000000 cycles:   15507773 heartbeat IPC: 2.06843 cumulative IPC: 1.99900 (Simulation time: 0 hr 3 min 54 sec) 
Heartbeat CPU  1 instructions:   32000000 cycles:   15826929 heartbeat IPC: 2.05805 cumulative IPC: 2.02187 (Simulation time: 0 hr 3 min 59 sec) 
Heartbeat CPU  3 instructions:   32000000 cycles:   15843057 heartbeat IPC: 2.24241 cumulative IPC: 2.01981 (Simulation time: 0 hr 3 min 59 sec) 
Heartbeat CPU  2 instructions:   42000000 cycles:   15872486 heartbeat IPC: 1.73271 cumulative IPC: 2.64609 (Simulation time: 0 hr 3 min 59 sec) 
Heartbeat CPU  0 instructions:   32000000 cycles:   15984016 heartbeat IPC: 2.09977 cumulative IPC: 2.00200 (Simulation time: 0 hr 4 min 1 sec) 
Heartbeat CPU  3 instructions:   33000003 cycles:   16293515 heartbeat IPC: 2.21997 cumulative IPC: 2.02535 (Simulation time: 0 hr 4 min 5 sec) 
Heartbeat CPU  1 instructions:   33000000 cycles:   16346047 heartbeat IPC: 1.92634 cumulative IPC: 2.01884 (Simulation time: 0 hr 4 min 6 sec) 
Heartbeat CPU  2 instructions:   43000001 cycles:   16452263 heartbeat IPC: 1.72480 cumulative IPC: 2.61362 (Simulation time: 0 hr 4 min 8 sec) 
Heartbeat CPU  0 instructions:   33000000 cycles:   16466693 heartbeat IPC: 2.07178 cumulative IPC: 2.00405 (Simulation time: 0 hr 4 min 8 sec) 
Heartbeat CPU  3 instructions:   34000003 cycles:   16780644 heartbeat IPC: 2.05284 cumulative IPC: 2.02614 (Simulation time: 0 hr 4 min 12 sec) 
Heartbeat CPU  1 instructions:   34000001 cycles:   16813625 heartbeat IPC: 2.13868 cumulative IPC: 2.02217 (Simulation time: 0 hr 4 min 12 sec) 
Heartbeat CPU  0 instructions:   34000003 cycles:   16968497 heartbeat IPC: 1.99282 cumulative IPC: 2.00371 (Simulation time: 0 hr 4 min 15 sec) 
Heartbeat CPU  2 instructions:   44000000 cycles:   17073940 heartbeat IPC: 1.60855 cumulative IPC: 2.57703 (Simulation time: 0 hr 4 min 16 sec) 
Heartbeat CPU  3 instructions:   35000003 cycles:   17257895 heartbeat IPC: 2.09533 cumulative IPC: 2.02806 (Simulation time: 0 hr 4 min 19 sec) 
Heartbeat CPU  1 instructions:   35000000 cycles:   17298665 heartbeat IPC: 2.06168 cumulative IPC: 2.02328 (Simulation time: 0 hr 4 min 19 sec) 
Heartbeat CPU  0 instructions:   35000000 cycles:   17445457 heartbeat IPC: 2.09661 cumulative IPC: 2.00625 (Simulation time: 0 hr 4 min 21 sec) 
Heartbeat CPU  2 instructions:   45000003 cycles:   17658346 heartbeat IPC: 1.71114 cumulative IPC: 2.54837 (Simulation time: 0 hr 4 min 24 sec) 
Heartbeat CPU  3 instructions:   36000000 cycles:   17731089 heartbeat IPC: 2.11329 cumulative IPC: 2.03033 (Simulation time: 0 hr 4 min 26 sec) 
Heartbeat CPU  1 instructions:   36000000 cycles:   17779491 heartbeat IPC: 2.07975 cumulative IPC: 2.02480 (Simulation time: 0 hr 4 min 26 sec) 
Heartbeat CPU  0 instructions:   36000000 cycles:   17908734 heartbeat IPC: 2.15854 cumulative IPC: 2.01019 (Simulation time: 0 hr 4 min 28 sec) 
Heartbeat CPU  3 instructions:   37000001 cycles:   18214957 heartbeat IPC: 2.06668 cumulative IPC: 2.03130 (Simulation time: 0 hr 4 min 33 sec) 
Heartbeat CPU  2 instructions:   46000001 cycles:   18239040 heartbeat IPC: 1.72207 cumulative IPC: 2.52206 (Simulation time: 0 hr 4 min 33 sec) 
Heartbeat CPU  1 instructions:   37000001 cycles:   18268481 heartbeat IPC: 2.04503 cumulative IPC: 2.02535 (Simulation time: 0 hr 4 min 33 sec) 
Heartbeat CPU  0 instructions:   37000003 cycles:   18410155 heartbeat IPC: 1.99434 cumulative IPC: 2.00976 (Simulation time: 0 hr 4 min 35 sec) 
Heartbeat CPU  3 instructions:   38000000 cycles:   18741142 heartbeat IPC: 1.90047 cumulative IPC: 2.02762 (Simulation time: 0 hr 4 min 39 sec) 
Heartbeat CPU  1 instructions:   38000000 cycles:   18802470 heartbeat IPC: 1.87270 cumulative IPC: 2.02101 (Simulation time: 0 hr 4 min 40 sec) 
Heartbeat CPU  2 instructions:   47000001 cycles:   18805929 heartbeat IPC: 1.76401 cumulative IPC: 2.49921 (Simulation time: 0 hr 4 min 40 sec) 
Heartbeat CPU  0 instructions:   38000002 cycles:   18927501 heartbeat IPC: 1.93294 cumulative IPC: 2.00766 (Simulation time: 0 hr 4 min 42 sec) 
Heartbeat CPU  3 instructions:   39000003 cycles:   19281991 heartbeat IPC: 1.84895 cumulative IPC: 2.02261 (Simulation time: 0 hr 4 min 47 sec) 
Heartbeat CPU  1 instructions:   39000003 cycles:   19318783 heartbeat IPC: 1.93682 cumulative IPC: 2.01876 (Simulation time: 0 hr 4 min 47 sec) 
Heartbeat CPU  2 instructions:   48000000 cycles:   19371749 heartbeat IPC: 1.76734 cumulative IPC: 2.47784 (Simulation time: 0 hr 4 min 48 sec) 
Heartbeat CPU  0 instructions:   39000003 cycles:   19451520 heartbeat IPC: 1.90833 cumulative IPC: 2.00498 (Simulation time: 0 hr 4 min 49 sec) 
Heartbeat CPU  1 instructions:   40000000 cycles:   19849996 heartbeat IPC: 1.88248 cumulative IPC: 2.01511 (Simulation time: 0 hr 4 min 53 sec) 
Heartbeat CPU  2 instructions:   49000000 cycles:   19949140 heartbeat IPC: 1.73193 cumulative IPC: 2.45625 (Simulation time: 0 hr 4 min 55 sec) 
Heartbeat CPU  3 instructions:   40000000 cycles:   19956710 heartbeat IPC: 1.48209 cumulative IPC: 2.00434 (Simulation time: 0 hr 4 min 55 sec) 
Heartbeat CPU  0 instructions:   40000000 cycles:   19973083 heartbeat IPC: 1.91731 cumulative IPC: 2.00270 (Simulation time: 0 hr 4 min 55 sec) 
Heartbeat CPU  1 instructions:   41000000 cycles:   20465796 heartbeat IPC: 1.62390 cumulative IPC: 2.00334 (Simulation time: 0 hr 5 min 1 sec) 
Heartbeat CPU  0 instructions:   41000002 cycles:   20495403 heartbeat IPC: 1.91454 cumulative IPC: 2.00045 (Simulation time: 0 hr 5 min 1 sec) 
Heartbeat CPU  2 instructions:   50000003 cycles:   20523260 heartbeat IPC: 1.74180 cumulative IPC: 2.43626 (Simulation time: 0 hr 5 min 1 sec) 
Heartbeat CPU  3 instructions:   41000000 cycles:   20602060 heartbeat IPC: 1.54955 cumulative IPC: 1.99009 (Simulation time: 0 hr 5 min 2 sec) 
Heartbeat CPU  1 instructions:   42000002 cycles:   20992118 heartbeat IPC: 1.89998 cumulative IPC: 2.00075 (Simulation time: 0 hr 5 min 7 sec) 
Heartbeat CPU  0 instructions:   42000001 cycles:   21020322 heartbeat IPC: 1.90505 cumulative IPC: 1.99807 (Simulation time: 0 hr 5 min 7 sec) 
Heartbeat CPU  2 instructions:   51000000 cycles:   21081535 heartbeat IPC: 1.79123 cumulative IPC: 0.04743 (Simulation time: 0 hr 5 min 8 sec) 
Heartbeat CPU  3 instructions:   42000003 cycles:   21208178 heartbeat IPC: 1.64985 cumulative IPC: 1.98037 (Simulation time: 0 hr 5 min 10 sec) 
Heartbeat CPU  1 instructions:   43000000 cycles:   21533750 heartbeat IPC: 1.84627 cumulative IPC: 1.99687 (Simulation time: 0 hr 5 min 13 sec) 
Heartbeat CPU  2 instructions:   52000000 cycles:   21637903 heartbeat IPC: 1.79737 cumulative IPC: 0.09243 (Simulation time: 0 hr 5 min 15 sec) 
Heartbeat CPU  0 instructions:   43000003 cycles:   21675576 heartbeat IPC: 1.52613 cumulative IPC: 1.98380 (Simulation time: 0 hr 5 min 15 sec) 
Heartbeat CPU  3 instructions:   43000002 cycles:   21759855 heartbeat IPC: 1.81265 cumulative IPC: 1.97612 (Simulation time: 0 hr 5 min 16 sec) 
Heartbeat CPU  1 instructions:   44000000 cycles:   22089400 heartbeat IPC: 1.79969 cumulative IPC: 1.99191 (Simulation time: 0 hr 5 min 20 sec) 
Heartbeat CPU  0 instructions:   44000000 cycles:   22198278 heartbeat IPC: 1.91313 cumulative IPC: 1.98214 (Simulation time: 0 hr 5 min 22 sec) 
Heartbeat CPU  2 instructions:   53000001 cycles:   22204344 heartbeat IPC: 1.76541 cumulative IPC: 0.13511 (Simulation time: 0 hr 5 min 22 sec) 
Heartbeat CPU  3 instructions:   44000000 cycles:   22302938 heartbeat IPC: 1.84134 cumulative IPC: 1.97283 (Simulation time: 0 hr 5 min 23 sec) 
Heartbeat CPU  1 instructions:   45000000 cycles:   22646100 heartbeat IPC: 1.79630 cumulative IPC: 1.98710 (Simulation time: 0 hr 5 min 27 sec) 
Heartbeat CPU  2 instructions:   54000000 cycles:   22759950 heartbeat IPC: 1.79983 cumulative IPC: 0.17575 (Simulation time: 0 hr 5 min 28 sec) 
Heartbeat CPU  3 instructions:   45000001 cycles:   22827463 heartbeat IPC: 1.90649 cumulative IPC: 1.97131 (Simulation time: 0 hr 5 min 29 sec) 
Heartbeat CPU  0 instructions:   45000000 cycles:   22879678 heartbeat IPC: 1.46757 cumulative IPC: 1.96681 (Simulation time: 0 hr 5 min 30 sec) 
Heartbeat CPU  1 instructions:   46000002 cycles:   23158338 heartbeat IPC: 1.95222 cumulative IPC: 1.98633 (Simulation time: 0 hr 5 min 33 sec) 
Heartbeat CPU  2 instructions:   55000002 cycles:   23334189 heartbeat IPC: 1.74144 cumulative IPC: 0.21428 (Simulation time: 0 hr 5 min 35 sec) 
Heartbeat CPU  3 instructions:   46000000 cycles:   23343589 heartbeat IPC: 1.93751 cumulative IPC: 1.97056 (Simulation time: 0 hr 5 min 36 sec) 
Heartbeat CPU  0 instructions:   46000000 cycles:   23493653 heartbeat IPC: 1.62873 cumulative IPC: 1.95798 (Simulation time: 0 hr 5 min 37 sec) 
Heartbeat CPU  1 instructions:   47000001 cycles:   23672257 heartbeat IPC: 1.94583 cumulative IPC: 1.98545 (Simulation time: 0 hr 5 min 40 sec) 
Heartbeat CPU  2 instructions:   56000000 cycles:   23868984 heartbeat IPC: 1.86987 cumulative IPC: 0.25137 (Simulation time: 0 hr 5 min 42 sec) 
Heartbeat CPU  3 instructions:   47000002 cycles:   23889958 heartbeat IPC: 1.83027 cumulative IPC: 1.96735 (Simulation time: 0 hr 5 min 43 sec) 
Heartbeat CPU  0 instructions:   47000000 cycles:   24001292 heartbeat IPC: 1.96990 cumulative IPC: 1.95823 (Simulation time: 0 hr 5 min 44 sec) 
Heartbeat CPU  1 instructions:   48000000 cycles:   24178739 heartbeat IPC: 1.97440 cumulative IPC: 1.98522 (Simulation time: 0 hr 5 min 47 sec) 
Heartbeat CPU  2 instructions:   57000001 cycles:   24181311 heartbeat IPC: 3.20178 cumulative IPC: 0.28948 (Simulation time: 0 hr 5 min 47 sec) 
Heartbeat CPU  3 instructions:   48000000 cycles:   24425188 heartbeat IPC: 1.86835 cumulative IPC: 1.96518 (Simulation time: 0 hr 5 min 51 sec) 
Heartbeat CPU  0 instructions:   48000000 cycles:   24526366 heartbeat IPC: 1.90449 cumulative IPC: 1.95708 (Simulation time: 0 hr 5 min 52 sec) 
Heartbeat CPU  2 instructions:   58000001 cycles:   24550439 heartbeat IPC: 2.70909 cumulative IPC: 0.32586 (Simulation time: 0 hr 5 min 52 sec) 
Heartbeat CPU  1 instructions:   49000001 cycles:   24697746 heartbeat IPC: 1.92676 cumulative IPC: 1.98399 (Simulation time: 0 hr 5 min 54 sec) 
Heartbeat CPU  3 instructions:   49000003 cycles:   24965686 heartbeat IPC: 1.85015 cumulative IPC: 1.96269 (Simulation time: 0 hr 5 min 57 sec) 
Heartbeat CPU  0 instructions:   49000003 cycles:   25041005 heartbeat IPC: 1.94312 cumulative IPC: 1.95679 (Simulation time: 0 hr 5 min 58 sec) 
Heartbeat CPU  2 instructions:   59000002 cycles:   25127815 heartbeat IPC: 1.73198 cumulative IPC: 0.35817 (Simulation time: 0 hr 5 min 59 sec) 
Heartbeat CPU  1 instructions:   50000000 cycles:   25237181 heartbeat IPC: 1.85379 cumulative IPC: 1.98120 (Simulation time: 0 hr 6 min 1 sec) 
Heartbeat CPU  3 instructions:   50000000 cycles:   25510217 heartbeat IPC: 1.83644 cumulative IPC: 1.96000 (Simulation time: 0 hr 6 min 4 sec) 
Heartbeat CPU  0 instructions:   50000003 cycles:   25580914 heartbeat IPC: 1.85216 cumulative IPC: 1.95458 (Simulation time: 0 hr 6 min 5 sec) 

Warmup complete CPU  0 instructions:   50000003 cycles:   25580914 (Simulation time: 0 hr 6 min 5 sec) 
Warmup complete CPU  1 instructions:   50607652 cycles:   25580913 (Simulation time: 0 hr 6 min 5 sec) 
Warmup complete CPU  2 instructions:   59823759 cycles:   25580914 (Simulation time: 0 hr 6 min 5 sec) 
Warmup complete CPU  3 instructions:   50146867 cycles:   25580913 (Simulation time: 0 hr 6 min 5 sec) 

Heartbeat CPU  2 instructions:   60000000 cycles:   26628192 heartbeat IPC: 0.66650 cumulative IPC: 0.16828 (Simulation time: 0 hr 6 min 7 sec) 
Heartbeat CPU  1 instructions:   51000000 cycles:   27392900 heartbeat IPC: 0.46388 cumulative IPC: 0.21653 (Simulation time: 0 hr 6 min 9 sec) 
Heartbeat CPU  3 instructions:   51000000 cycles:   29638841 heartbeat IPC: 0.24221 cumulative IPC: 0.21024 (Simulation time: 0 hr 6 min 13 sec) 
Heartbeat CPU  0 instructions:   51000001 cycles:   30347842 heartbeat IPC: 0.20978 cumulative IPC: 0.20978 (Simulation time: 0 hr 6 min 14 sec) 
Heartbeat CPU  1 instructions:   52000000 cycles:   32176236 heartbeat IPC: 0.20906 cumulative IPC: 0.21111 (Simulation time: 0 hr 6 min 18 sec) 
Heartbeat CPU  2 instructions:   61000000 cycles:   32374929 heartbeat IPC: 0.17401 cumulative IPC: 0.17313 (Simulation time: 0 hr 6 min 18 sec) 
Heartbeat CPU  3 instructions:   52000000 cycles:   34471828 heartbeat IPC: 0.20691 cumulative IPC: 0.20843 (Simulation time: 0 hr 6 min 22 sec) 
Heartbeat CPU  0 instructions:   52000000 cycles:   35047586 heartbeat IPC: 0.21278 cumulative IPC: 0.21127 (Simulation time: 0 hr 6 min 24 sec) 
Heartbeat CPU  2 instructions:   62000002 cycles:   35644516 heartbeat IPC: 0.30585 cumulative IPC: 0.21625 (Simulation time: 0 hr 6 min 25 sec) 
Heartbeat CPU  1 instructions:   53000002 cycles:   36920615 heartbeat IPC: 0.21078 cumulative IPC: 0.21097 (Simulation time: 0 hr 6 min 29 sec) 
Heartbeat CPU  2 instructions:   63000003 cycles:   37090527 heartbeat IPC: 0.69156 cumulative IPC: 0.27596 (Simulation time: 0 hr 6 min 29 sec) 
Heartbeat CPU  2 instructions:   64000000 cycles:   38519518 heartbeat IPC: 0.69979 cumulative IPC: 0.32277 (Simulation time: 0 hr 6 min 33 sec) 
Heartbeat CPU  3 instructions:   53000003 cycles:   39255701 heartbeat IPC: 0.20904 cumulative IPC: 0.20864 (Simulation time: 0 hr 6 min 34 sec) 
Heartbeat CPU  0 instructions:   53000001 cycles:   39817357 heartbeat IPC: 0.20965 cumulative IPC: 0.21073 (Simulation time: 0 hr 6 min 36 sec) 
Heartbeat CPU  2 instructions:   65000003 cycles:   40149149 heartbeat IPC: 0.61364 cumulative IPC: 0.35531 (Simulation time: 0 hr 6 min 37 sec) 
Heartbeat CPU  2 instructions:   66000001 cycles:   41420829 heartbeat IPC: 0.78636 cumulative IPC: 0.38992 (Simulation time: 0 hr 6 min 40 sec) 
Heartbeat CPU  1 instructions:   54000002 cycles:   41655164 heartbeat IPC: 0.21121 cumulative IPC: 0.21104 (Simulation time: 0 hr 6 min 41 sec) 
Heartbeat CPU  2 instructions:   67000002 cycles:   42464059 heartbeat IPC: 0.95856 cumulative IPC: 0.42505 (Simulation time: 0 hr 6 min 44 sec) 
Heartbeat CPU  2 instructions:   68000000 cycles:   43459143 heartbeat IPC: 1.00494 cumulative IPC: 0.45733 (Simulation time: 0 hr 6 min 47 sec) 
Heartbeat CPU  3 instructions:   54000000 cycles:   44008385 heartbeat IPC: 0.21041 cumulative IPC: 0.20910 (Simulation time: 0 hr 6 min 48 sec) 
Heartbeat CPU  0 instructions:   54000001 cycles:   44529207 heartbeat IPC: 0.21223 cumulative IPC: 0.21110 (Simulation time: 0 hr 6 min 50 sec) 
Heartbeat CPU  2 instructions:   69000000 cycles:   44803268 heartbeat IPC: 0.74398 cumulative IPC: 0.47737 (Simulation time: 0 hr 6 min 50 sec) 
Heartbeat CPU  2 instructions:   70000001 cycles:   46430568 heartbeat IPC: 0.61452 cumulative IPC: 0.48808 (Simulation time: 0 hr 6 min 54 sec) 
Heartbeat CPU  1 instructions:   55000002 cycles:   46433990 heartbeat IPC: 0.20926 cumulative IPC: 0.21063 (Simulation time: 0 hr 6 min 54 sec) 
Heartbeat CPU  2 instructions:   71000002 cycles:   48305311 heartbeat IPC: 0.53341 cumulative IPC: 0.49182 (Simulation time: 0 hr 6 min 59 sec) 
Heartbeat CPU  3 instructions:   55000001 cycles:   48808353 heartbeat IPC: 0.20833 cumulative IPC: 0.20894 (Simulation time: 0 hr 7 min 0 sec) 
Heartbeat CPU  0 instructions:   55000000 cycles:   49211245 heartbeat IPC: 0.21358 cumulative IPC: 0.21159 (Simulation time: 0 hr 7 min 1 sec) 
Heartbeat CPU  2 instructions:   72000000 cycles:   50146884 heartbeat IPC: 0.54301 cumulative IPC: 0.49565 (Simulation time: 0 hr 7 min 3 sec) 
Heartbeat CPU  1 instructions:   56000000 cycles:   51268661 heartbeat IPC: 0.20684 cumulative IPC: 0.20992 (Simulation time: 0 hr 7 min 6 sec) 
Heartbeat CPU  2 instructions:   73000002 cycles:   52024110 heartbeat IPC: 0.53270 cumulative IPC: 0.49828 (Simulation time: 0 hr 7 min 8 sec) 
Heartbeat CPU  3 instructions:   56000000 cycles:   53529490 heartbeat IPC: 0.21181 cumulative IPC: 0.20943 (Simulation time: 0 hr 7 min 12 sec) 
Heartbeat CPU  2 instructions:   74000000 cycles:   53596542 heartbeat IPC: 0.63596 cumulative IPC: 0.50601 (Simulation time: 0 hr 7 min 12 sec) 
Heartbeat CPU  0 instructions:   56000000 cycles:   53991554 heartbeat IPC: 0.20919 cumulative IPC: 0.21119 (Simulation time: 0 hr 7 min 13 sec) 
Heartbeat CPU  2 instructions:   75000001 cycles:   55532432 heartbeat IPC: 0.51656 cumulative IPC: 0.50669 (Simulation time: 0 hr 7 min 17 sec) 
Heartbeat CPU  1 instructions:   57000001 cycles:   56012586 heartbeat IPC: 0.21080 cumulative IPC: 0.21006 (Simulation time: 0 hr 7 min 18 sec) 
Heartbeat CPU  3 instructions:   57000000 cycles:   58070170 heartbeat IPC: 0.22023 cumulative IPC: 0.21094 (Simulation time: 0 hr 7 min 21 sec) 
Heartbeat CPU  0 instructions:   57000001 cycles:   58716304 heartbeat IPC: 0.21165 cumulative IPC: 0.21125 (Simulation time: 0 hr 7 min 23 sec) 
Heartbeat CPU  1 instructions:   58000001 cycles:   60726855 heartbeat IPC: 0.21212 cumulative IPC: 0.21033 (Simulation time: 0 hr 7 min 27 sec) 
Heartbeat CPU  2 instructions:   76000000 cycles:   61557422 heartbeat IPC: 0.16598 cumulative IPC: 0.44963 (Simulation time: 0 hr 7 min 28 sec) 
Heartbeat CPU  3 instructions:   58000001 cycles:   62757476 heartbeat IPC: 0.21334 cumulative IPC: 0.21124 (Simulation time: 0 hr 7 min 31 sec) 
Heartbeat CPU  0 instructions:   58000003 cycles:   63363589 heartbeat IPC: 0.21518 cumulative IPC: 0.21174 (Simulation time: 0 hr 7 min 32 sec) 
Heartbeat CPU  1 instructions:   59000002 cycles:   65359792 heartbeat IPC: 0.21585 cumulative IPC: 0.21098 (Simulation time: 0 hr 7 min 36 sec) 
Heartbeat CPU  2 instructions:   77000001 cycles:   67457797 heartbeat IPC: 0.16948 cumulative IPC: 0.41016 (Simulation time: 0 hr 7 min 39 sec) 
Heartbeat CPU  3 instructions:   59000003 cycles:   67546570 heartbeat IPC: 0.20881 cumulative IPC: 0.21096 (Simulation time: 0 hr 7 min 40 sec) 
Heartbeat CPU  0 instructions:   59000002 cycles:   68075933 heartbeat IPC: 0.21221 cumulative IPC: 0.21179 (Simulation time: 0 hr 7 min 41 sec) 
Heartbeat CPU  1 instructions:   60000000 cycles:   70206323 heartbeat IPC: 0.20633 cumulative IPC: 0.21047 (Simulation time: 0 hr 7 min 45 sec) 
Heartbeat CPU  3 instructions:   60000000 cycles:   72306980 heartbeat IPC: 0.21007 cumulative IPC: 0.21087 (Simulation time: 0 hr 7 min 49 sec) 
Heartbeat CPU  0 instructions:   60000000 cycles:   72765997 heartbeat IPC: 0.21322 cumulative IPC: 0.21193 (Simulation time: 0 hr 7 min 49 sec) 
Heartbeat CPU  2 instructions:   78000003 cycles:   73249764 heartbeat IPC: 0.17265 cumulative IPC: 0.38130 (Simulation time: 0 hr 7 min 50 sec) 
Heartbeat CPU  1 instructions:   61000003 cycles:   74918808 heartbeat IPC: 0.21220 cumulative IPC: 0.21064 (Simulation time: 0 hr 7 min 54 sec) 
Heartbeat CPU  3 instructions:   61000003 cycles:   77150075 heartbeat IPC: 0.20648 cumulative IPC: 0.21046 (Simulation time: 0 hr 7 min 58 sec) 
Heartbeat CPU  0 instructions:   61000001 cycles:   77554989 heartbeat IPC: 0.20881 cumulative IPC: 0.21164 (Simulation time: 0 hr 7 min 59 sec) 
Heartbeat CPU  2 instructions:   79000000 cycles:   79149858 heartbeat IPC: 0.16949 cumulative IPC: 0.35797 (Simulation time: 0 hr 8 min 2 sec) 
Heartbeat CPU  1 instructions:   62000002 cycles:   79632926 heartbeat IPC: 0.21213 cumulative IPC: 0.21077 (Simulation time: 0 hr 8 min 2 sec) 
Heartbeat CPU  3 instructions:   62000002 cycles:   81855370 heartbeat IPC: 0.21253 cumulative IPC: 0.21063 (Simulation time: 0 hr 8 min 7 sec) 
Heartbeat CPU  0 instructions:   62000001 cycles:   82205288 heartbeat IPC: 0.21504 cumulative IPC: 0.21192 (Simulation time: 0 hr 8 min 7 sec) 
Heartbeat CPU  0 instructions:   63000001 cycles:   83101612 heartbeat IPC: 1.11567 cumulative IPC: 0.22601 (Simulation time: 0 hr 8 min 10 sec) 
Heartbeat CPU  0 instructions:   64000000 cycles:   83708888 heartbeat IPC: 1.64670 cumulative IPC: 0.24085 (Simulation time: 0 hr 8 min 12 sec) 
Heartbeat CPU  1 instructions:   63000003 cycles:   84357012 heartbeat IPC: 0.21168 cumulative IPC: 0.21084 (Simulation time: 0 hr 8 min 15 sec) 
Heartbeat CPU  0 instructions:   65000000 cycles:   84399578 heartbeat IPC: 1.44783 cumulative IPC: 0.25502 (Simulation time: 0 hr 8 min 15 sec) 
Heartbeat CPU  2 instructions:   80000000 cycles:   84990555 heartbeat IPC: 0.17121 cumulative IPC: 0.33961 (Simulation time: 0 hr 8 min 17 sec) 
Heartbeat CPU  0 instructions:   66000003 cycles:   85042084 heartbeat IPC: 1.55641 cumulative IPC: 0.26908 (Simulation time: 0 hr 8 min 17 sec) 
Heartbeat CPU  0 instructions:   67000001 cycles:   85634701 heartbeat IPC: 1.68743 cumulative IPC: 0.28308 (Simulation time: 0 hr 8 min 20 sec) 
Heartbeat CPU  0 instructions:   68000000 cycles:   86223204 heartbeat IPC: 1.69922 cumulative IPC: 0.29682 (Simulation time: 0 hr 8 min 22 sec) 
Heartbeat CPU  3 instructions:   63000001 cycles:   86572643 heartbeat IPC: 0.21199 cumulative IPC: 0.21074 (Simulation time: 0 hr 8 min 23 sec) 
Heartbeat CPU  1 instructions:   64000000 cycles:   89026066 heartbeat IPC: 0.21418 cumulative IPC: 0.21109 (Simulation time: 0 hr 8 min 28 sec) 
Heartbeat CPU  0 instructions:   69000003 cycles:   90314744 heartbeat IPC: 0.24441 cumulative IPC: 0.29351 (Simulation time: 0 hr 8 min 30 sec) 
Heartbeat CPU  2 instructions:   81000000 cycles:   90975416 heartbeat IPC: 0.16709 cumulative IPC: 0.32382 (Simulation time: 0 hr 8 min 31 sec) 
Heartbeat CPU  3 instructions:   64000000 cycles:   91197554 heartbeat IPC: 0.21622 cumulative IPC: 0.21112 (Simulation time: 0 hr 8 min 32 sec) 
Heartbeat CPU  1 instructions:   65000000 cycles:   93707623 heartbeat IPC: 0.21360 cumulative IPC: 0.21126 (Simulation time: 0 hr 8 min 36 sec) 
Heartbeat CPU  0 instructions:   70000001 cycles:   94999989 heartbeat IPC: 0.21344 cumulative IPC: 0.28811 (Simulation time: 0 hr 8 min 39 sec) 
Heartbeat CPU  3 instructions:   65000003 cycles:   95936415 heartbeat IPC: 0.21102 cumulative IPC: 0.21112 (Simulation time: 0 hr 8 min 41 sec) 
Heartbeat CPU  1 instructions:   66000002 cycles:   96602246 heartbeat IPC: 0.34547 cumulative IPC: 0.21673 (Simulation time: 0 hr 8 min 43 sec) 
Heartbeat CPU  2 instructions:   82000000 cycles:   96878585 heartbeat IPC: 0.16940 cumulative IPC: 0.31104 (Simulation time: 0 hr 8 min 44 sec) 
Heartbeat CPU  1 instructions:   67000003 cycles:   97209933 heartbeat IPC: 1.64559 cumulative IPC: 0.22885 (Simulation time: 0 hr 8 min 45 sec) 
Heartbeat CPU  1 instructions:   68000000 cycles:   97809834 heartbeat IPC: 1.66694 cumulative IPC: 0.24079 (Simulation time: 0 hr 8 min 47 sec) 
Heartbeat CPU  1 instructions:   69000003 cycles:   98400794 heartbeat IPC: 1.69217 cumulative IPC: 0.25257 (Simulation time: 0 hr 8 min 50 sec) 
Heartbeat CPU  0 instructions:   71000000 cycles:   99593053 heartbeat IPC: 0.21772 cumulative IPC: 0.28374 (Simulation time: 0 hr 8 min 53 sec) 
Heartbeat CPU  3 instructions:   66000002 cycles:  100514191 heartbeat IPC: 0.21845 cumulative IPC: 0.21156 (Simulation time: 0 hr 8 min 54 sec) 
Heartbeat CPU  1 instructions:   70000001 cycles:  100858184 heartbeat IPC: 0.40694 cumulative IPC: 0.25761 (Simulation time: 0 hr 8 min 55 sec) 
Heartbeat CPU  2 instructions:   83000002 cycles:  102806694 heartbeat IPC: 0.16869 cumulative IPC: 0.30011 (Simulation time: 0 hr 8 min 59 sec) 
Heartbeat CPU  0 instructions:   72000000 cycles:  104177737 heartbeat IPC: 0.21812 cumulative IPC: 0.27991 (Simulation time: 0 hr 9 min 1 sec) 
Heartbeat CPU  3 instructions:   67000003 cycles:  105205056 heartbeat IPC: 0.21318 cumulative IPC: 0.21166 (Simulation time: 0 hr 9 min 3 sec) 
Heartbeat CPU  1 instructions:   71000000 cycles:  105522907 heartbeat IPC: 0.21437 cumulative IPC: 0.25509 (Simulation time: 0 hr 9 min 4 sec) 
Heartbeat CPU  2 instructions:   84000000 cycles:  107408694 heartbeat IPC: 0.21730 cumulative IPC: 0.29545 (Simulation time: 0 hr 9 min 8 sec) 
Heartbeat CPU  0 instructions:   73000001 cycles:  108860569 heartbeat IPC: 0.21355 cumulative IPC: 0.27618 (Simulation time: 0 hr 9 min 11 sec) 
Heartbeat CPU  3 instructions:   68000000 cycles:  109760997 heartbeat IPC: 0.21949 cumulative IPC: 0.21208 (Simulation time: 0 hr 9 min 12 sec) 
Heartbeat CPU  1 instructions:   72000000 cycles:  110160284 heartbeat IPC: 0.21564 cumulative IPC: 0.25293 (Simulation time: 0 hr 9 min 13 sec) 
Heartbeat CPU  0 instructions:   74000003 cycles:  111302638 heartbeat IPC: 0.40949 cumulative IPC: 0.27998 (Simulation time: 0 hr 9 min 16 sec) 
Heartbeat CPU  2 instructions:   85000000 cycles:  112021253 heartbeat IPC: 0.21680 cumulative IPC: 0.29126 (Simulation time: 0 hr 9 min 18 sec) 
Heartbeat CPU  3 instructions:   69000001 cycles:  114482358 heartbeat IPC: 0.21180 cumulative IPC: 0.21207 (Simulation time: 0 hr 9 min 23 sec) 
Heartbeat CPU  0 instructions:   75000000 cycles:  114814570 heartbeat IPC: 0.28474 cumulative IPC: 0.28016 (Simulation time: 0 hr 9 min 23 sec) 
Heartbeat CPU  1 instructions:   73000002 cycles:  114861622 heartbeat IPC: 0.21271 cumulative IPC: 0.25081 (Simulation time: 0 hr 9 min 23 sec) 
Heartbeat CPU  2 instructions:   86000001 cycles:  117797069 heartbeat IPC: 0.17314 cumulative IPC: 0.28386 (Simulation time: 0 hr 9 min 29 sec) 
Heartbeat CPU  3 instructions:   70000000 cycles:  119205545 heartbeat IPC: 0.21172 cumulative IPC: 0.21205 (Simulation time: 0 hr 9 min 32 sec) 
Heartbeat CPU  1 instructions:   74000000 cycles:  119421717 heartbeat IPC: 0.21929 cumulative IPC: 0.24928 (Simulation time: 0 hr 9 min 32 sec) 
Heartbeat CPU  0 instructions:   76000000 cycles:  119656953 heartbeat IPC: 0.20651 cumulative IPC: 0.27637 (Simulation time: 0 hr 9 min 33 sec) 
Heartbeat CPU  2 instructions:   87000002 cycles:  123764170 heartbeat IPC: 0.16759 cumulative IPC: 0.27679 (Simulation time: 0 hr 9 min 41 sec) 
Heartbeat CPU  3 instructions:   71000000 cycles:  123867369 heartbeat IPC: 0.21451 cumulative IPC: 0.21217 (Simulation time: 0 hr 9 min 41 sec) 
Heartbeat CPU  1 instructions:   75000000 cycles:  124100558 heartbeat IPC: 0.21373 cumulative IPC: 0.24759 (Simulation time: 0 hr 9 min 41 sec) 
Heartbeat CPU  0 instructions:   77000000 cycles:  124404136 heartbeat IPC: 0.21065 cumulative IPC: 0.27322 (Simulation time: 0 hr 9 min 42 sec) 
Heartbeat CPU  3 instructions:   72000000 cycles:  128546776 heartbeat IPC: 0.21370 cumulative IPC: 0.21224 (Simulation time: 0 hr 9 min 50 sec) 
Heartbeat CPU  2 instructions:   88000000 cycles:  128559064 heartbeat IPC: 0.20855 cumulative IPC: 0.27361 (Simulation time: 0 hr 9 min 50 sec) 
Heartbeat CPU  1 instructions:   76000000 cycles:  128758981 heartbeat IPC: 0.21466 cumulative IPC: 0.24610 (Simulation time: 0 hr 9 min 51 sec) 
Heartbeat CPU  0 instructions:   78000002 cycles:  129149261 heartbeat IPC: 0.21074 cumulative IPC: 0.27035 (Simulation time: 0 hr 9 min 51 sec) 
Heartbeat CPU  3 instructions:   73000003 cycles:  133287683 heartbeat IPC: 0.21093 cumulative IPC: 0.21218 (Simulation time: 0 hr 9 min 59 sec) 
Heartbeat CPU  1 instructions:   77000001 cycles:  133398019 heartbeat IPC: 0.21556 cumulative IPC: 0.24479 (Simulation time: 0 hr 9 min 59 sec) 
Heartbeat CPU  0 instructions:   79000003 cycles:  133793649 heartbeat IPC: 0.21531 cumulative IPC: 0.26799 (Simulation time: 0 hr 10 min 0 sec) 
Heartbeat CPU  2 instructions:   89000000 cycles:  133882987 heartbeat IPC: 0.18783 cumulative IPC: 0.26940 (Simulation time: 0 hr 10 min 0 sec) 
Heartbeat CPU  3 instructions:   74000000 cycles:  137895984 heartbeat IPC: 0.21700 cumulative IPC: 0.21238 (Simulation time: 0 hr 10 min 8 sec) 
Heartbeat CPU  1 instructions:   78000003 cycles:  138279509 heartbeat IPC: 0.20486 cumulative IPC: 0.24306 (Simulation time: 0 hr 10 min 9 sec) 
Heartbeat CPU  0 instructions:   80000000 cycles:  138596225 heartbeat IPC: 0.20822 cumulative IPC: 0.26545 (Simulation time: 0 hr 10 min 9 sec) 
Heartbeat CPU  2 instructions:   90000001 cycles:  139600658 heartbeat IPC: 0.17490 cumulative IPC: 0.26466 (Simulation time: 0 hr 10 min 11 sec) 
Heartbeat CPU  3 instructions:   75000000 cycles:  142566239 heartbeat IPC: 0.21412 cumulative IPC: 0.21245 (Simulation time: 0 hr 10 min 17 sec) 
Heartbeat CPU  1 instructions:   79000003 cycles:  143073172 heartbeat IPC: 0.20861 cumulative IPC: 0.24165 (Simulation time: 0 hr 10 min 18 sec) 
Heartbeat CPU  0 instructions:   81000003 cycles:  143375169 heartbeat IPC: 0.20925 cumulative IPC: 0.26317 (Simulation time: 0 hr 10 min 18 sec) 
Heartbeat CPU  2 instructions:   91000003 cycles:  145355342 heartbeat IPC: 0.17377 cumulative IPC: 0.26029 (Simulation time: 0 hr 10 min 22 sec) 
Heartbeat CPU  3 instructions:   76000000 cycles:  147397408 heartbeat IPC: 0.20699 cumulative IPC: 0.21223 (Simulation time: 0 hr 10 min 26 sec) 
Heartbeat CPU  1 instructions:   80000000 cycles:  147756548 heartbeat IPC: 0.21352 cumulative IPC: 0.24057 (Simulation time: 0 hr 10 min 27 sec) 
Heartbeat CPU  0 instructions:   82000001 cycles:  148035781 heartbeat IPC: 0.21456 cumulative IPC: 0.26132 (Simulation time: 0 hr 10 min 27 sec) 
Heartbeat CPU  2 instructions:   92000000 cycles:  151221761 heartbeat IPC: 0.17046 cumulative IPC: 0.25610 (Simulation time: 0 hr 10 min 33 sec) 
Heartbeat CPU  3 instructions:   77000000 cycles:  152148656 heartbeat IPC: 0.21047 cumulative IPC: 0.21216 (Simulation time: 0 hr 10 min 35 sec) 
Heartbeat CPU  1 instructions:   81000003 cycles:  152525020 heartbeat IPC: 0.20971 cumulative IPC: 0.23942 (Simulation time: 0 hr 10 min 36 sec) 
Heartbeat CPU  0 instructions:   83000000 cycles:  152749575 heartbeat IPC: 0.21214 cumulative IPC: 0.25950 (Simulation time: 0 hr 10 min 36 sec) 
Heartbeat CPU  3 instructions:   78000000 cycles:  156861604 heartbeat IPC: 0.21218 cumulative IPC: 0.21216 (Simulation time: 0 hr 10 min 44 sec) 
Heartbeat CPU  2 instructions:   93000001 cycles:  157028429 heartbeat IPC: 0.17222 cumulative IPC: 0.25239 (Simulation time: 0 hr 10 min 44 sec) 
Heartbeat CPU  1 instructions:   82000000 cycles:  157272781 heartbeat IPC: 0.21062 cumulative IPC: 0.23838 (Simulation time: 0 hr 10 min 45 sec) 
Heartbeat CPU  0 instructions:   84000000 cycles:  157468735 heartbeat IPC: 0.21190 cumulative IPC: 0.25779 (Simulation time: 0 hr 10 min 45 sec) 
Heartbeat CPU  3 instructions:   79000000 cycles:  161639625 heartbeat IPC: 0.20929 cumulative IPC: 0.21206 (Simulation time: 0 hr 10 min 53 sec) 
Heartbeat CPU  1 instructions:   83000001 cycles:  161929647 heartbeat IPC: 0.21474 cumulative IPC: 0.23757 (Simulation time: 0 hr 10 min 54 sec) 
Heartbeat CPU  0 instructions:   85000000 cycles:  162353420 heartbeat IPC: 0.20472 cumulative IPC: 0.25590 (Simulation time: 0 hr 10 min 54 sec) 
Heartbeat CPU  2 instructions:   94000002 cycles:  162795453 heartbeat IPC: 0.17340 cumulative IPC: 0.24907 (Simulation time: 0 hr 10 min 55 sec) 
Heartbeat CPU  3 instructions:   80000000 cycles:  166364996 heartbeat IPC: 0.21162 cumulative IPC: 0.21205 (Simulation time: 0 hr 11 min 2 sec) 
Heartbeat CPU  1 instructions:   84000000 cycles:  166843808 heartbeat IPC: 0.20349 cumulative IPC: 0.23638 (Simulation time: 0 hr 11 min 3 sec) 
Heartbeat CPU  0 instructions:   86000003 cycles:  166985319 heartbeat IPC: 0.21589 cumulative IPC: 0.25459 (Simulation time: 0 hr 11 min 3 sec) 
Heartbeat CPU  2 instructions:   95000001 cycles:  168579880 heartbeat IPC: 0.17288 cumulative IPC: 0.24599 (Simulation time: 0 hr 11 min 6 sec) 
Heartbeat CPU  3 instructions:   81000003 cycles:  171143087 heartbeat IPC: 0.20929 cumulative IPC: 0.21196 (Simulation time: 0 hr 11 min 11 sec) 
Heartbeat CPU  1 instructions:   85000002 cycles:  171618676 heartbeat IPC: 0.20943 cumulative IPC: 0.23550 (Simulation time: 0 hr 11 min 12 sec) 
Heartbeat CPU  0 instructions:   87000003 cycles:  171841119 heartbeat IPC: 0.20594 cumulative IPC: 0.25297 (Simulation time: 0 hr 11 min 12 sec) 
Heartbeat CPU  2 instructions:   96000000 cycles:  174322170 heartbeat IPC: 0.17415 cumulative IPC: 0.24322 (Simulation time: 0 hr 11 min 17 sec) 
Heartbeat CPU  3 instructions:   82000002 cycles:  175873587 heartbeat IPC: 0.21139 cumulative IPC: 0.21194 (Simulation time: 0 hr 11 min 20 sec) 
Heartbeat CPU  1 instructions:   86000003 cycles:  176429741 heartbeat IPC: 0.20785 cumulative IPC: 0.23462 (Simulation time: 0 hr 11 min 21 sec) 
Heartbeat CPU  0 instructions:   88000000 cycles:  176660421 heartbeat IPC: 0.20750 cumulative IPC: 0.25152 (Simulation time: 0 hr 11 min 21 sec) 
Heartbeat CPU  2 instructions:   97000000 cycles:  180032926 heartbeat IPC: 0.17511 cumulative IPC: 0.24070 (Simulation time: 0 hr 11 min 28 sec) 
Heartbeat CPU  3 instructions:   83000000 cycles:  180553078 heartbeat IPC: 0.21370 cumulative IPC: 0.21199 (Simulation time: 0 hr 11 min 29 sec) 
Heartbeat CPU  1 instructions:   87000002 cycles:  181199068 heartbeat IPC: 0.20967 cumulative IPC: 0.23386 (Simulation time: 0 hr 11 min 30 sec) 
Heartbeat CPU  0 instructions:   89000001 cycles:  181300638 heartbeat IPC: 0.21551 cumulative IPC: 0.25045 (Simulation time: 0 hr 11 min 30 sec) 
Heartbeat CPU  3 instructions:   84000000 cycles:  185195629 heartbeat IPC: 0.21540 cumulative IPC: 0.21209 (Simulation time: 0 hr 11 min 38 sec) 
Heartbeat CPU  2 instructions:   98000003 cycles:  185518853 heartbeat IPC: 0.18229 cumulative IPC: 0.23869 (Simulation time: 0 hr 11 min 39 sec) 
Heartbeat CPU  1 instructions:   88000000 cycles:  185810747 heartbeat IPC: 0.21684 cumulative IPC: 0.23337 (Simulation time: 0 hr 11 min 39 sec) 
Heartbeat CPU  0 instructions:   90000000 cycles:  186021832 heartbeat IPC: 0.21181 cumulative IPC: 0.24931 (Simulation time: 0 hr 11 min 40 sec) 
Heartbeat CPU  3 instructions:   85000002 cycles:  190058524 heartbeat IPC: 0.20564 cumulative IPC: 0.21190 (Simulation time: 0 hr 11 min 47 sec) 
Heartbeat CPU  1 instructions:   89000000 cycles:  190413027 heartbeat IPC: 0.21728 cumulative IPC: 0.23292 (Simulation time: 0 hr 11 min 48 sec) 
Heartbeat CPU  0 instructions:   91000002 cycles:  190719360 heartbeat IPC: 0.21288 cumulative IPC: 0.24828 (Simulation time: 0 hr 11 min 49 sec) 
Heartbeat CPU  2 instructions:   99000000 cycles:  191280250 heartbeat IPC: 0.17357 cumulative IPC: 0.23643 (Simulation time: 0 hr 11 min 50 sec) 
Heartbeat CPU  3 instructions:   86000003 cycles:  194733364 heartbeat IPC: 0.21391 cumulative IPC: 0.21196 (Simulation time: 0 hr 11 min 56 sec) 
Heartbeat CPU  1 instructions:   90000000 cycles:  195099378 heartbeat IPC: 0.21339 cumulative IPC: 0.23238 (Simulation time: 0 hr 11 min 57 sec) 
Heartbeat CPU  0 instructions:   92000000 cycles:  195521181 heartbeat IPC: 0.20825 cumulative IPC: 0.24715 (Simulation time: 0 hr 11 min 58 sec) 
*** Reached end of trace for Core: 2 Repeating trace: /data3/STREAMING/traces/streaming_phase1_core2.trace.xz
Heartbeat CPU  2 instructions:  100000000 cycles:  196818393 heartbeat IPC: 0.18057 cumulative IPC: 0.23462 (Simulation time: 0 hr 12 min 0 sec) 
Heartbeat CPU  2 instructions:  101000001 cycles:  198678710 heartbeat IPC: 0.53754 cumulative IPC: 0.23788 (Simulation time: 0 hr 12 min 5 sec) 
Heartbeat CPU  3 instructions:   87000000 cycles:  199501673 heartbeat IPC: 0.20972 cumulative IPC: 0.21190 (Simulation time: 0 hr 12 min 7 sec) 
Heartbeat CPU  1 instructions:   91000000 cycles:  199828289 heartbeat IPC: 0.21147 cumulative IPC: 0.23181 (Simulation time: 0 hr 12 min 8 sec) 
Heartbeat CPU  0 instructions:   93000000 cycles:  200293580 heartbeat IPC: 0.20954 cumulative IPC: 0.24612 (Simulation time: 0 hr 12 min 9 sec) 
Heartbeat CPU  2 instructions:  102000003 cycles:  200651930 heartbeat IPC: 0.50679 cumulative IPC: 0.24091 (Simulation time: 0 hr 12 min 10 sec) 
Heartbeat CPU  2 instructions:  103000001 cycles:  202549127 heartbeat IPC: 0.52709 cumulative IPC: 0.24398 (Simulation time: 0 hr 12 min 14 sec) 
Heartbeat CPU  3 instructions:   88000000 cycles:  204318215 heartbeat IPC: 0.20762 cumulative IPC: 0.21178 (Simulation time: 0 hr 12 min 18 sec) 
Heartbeat CPU  2 instructions:  104000000 cycles:  204534597 heartbeat IPC: 0.50366 cumulative IPC: 0.24686 (Simulation time: 0 hr 12 min 19 sec) 
Heartbeat CPU  1 instructions:   92000000 cycles:  204544591 heartbeat IPC: 0.21203 cumulative IPC: 0.23129 (Simulation time: 0 hr 12 min 19 sec) 
Heartbeat CPU  0 instructions:   94000000 cycles:  205086287 heartbeat IPC: 0.20865 cumulative IPC: 0.24512 (Simulation time: 0 hr 12 min 20 sec) 
Heartbeat CPU  2 instructions:  105000001 cycles:  206452070 heartbeat IPC: 0.52152 cumulative IPC: 0.24977 (Simulation time: 0 hr 12 min 24 sec) 
Heartbeat CPU  2 instructions:  106000002 cycles:  208150194 heartbeat IPC: 0.58889 cumulative IPC: 0.25292 (Simulation time: 0 hr 12 min 28 sec) 
Heartbeat CPU  3 instructions:   89000003 cycles:  209036797 heartbeat IPC: 0.21193 cumulative IPC: 0.21178 (Simulation time: 0 hr 12 min 29 sec) 
Heartbeat CPU  1 instructions:   93000001 cycles:  209414492 heartbeat IPC: 0.20534 cumulative IPC: 0.23060 (Simulation time: 0 hr 12 min 30 sec) 
Heartbeat CPU  0 instructions:   95000000 cycles:  209886609 heartbeat IPC: 0.20832 cumulative IPC: 0.24416 (Simulation time: 0 hr 12 min 31 sec) 
Heartbeat CPU  2 instructions:  107000003 cycles:  213559864 heartbeat IPC: 0.18485 cumulative IPC: 0.25097 (Simulation time: 0 hr 12 min 38 sec) 
Heartbeat CPU  3 instructions:   90000003 cycles:  213771739 heartbeat IPC: 0.21120 cumulative IPC: 0.21177 (Simulation time: 0 hr 12 min 39 sec) 
Heartbeat CPU  1 instructions:   94000003 cycles:  214163771 heartbeat IPC: 0.21056 cumulative IPC: 0.23010 (Simulation time: 0 hr 12 min 40 sec) 
Heartbeat CPU  0 instructions:   96000000 cycles:  214624656 heartbeat IPC: 0.21106 cumulative IPC: 0.24333 (Simulation time: 0 hr 12 min 40 sec) 
Heartbeat CPU  3 instructions:   91000000 cycles:  218514667 heartbeat IPC: 0.21084 cumulative IPC: 0.21175 (Simulation time: 0 hr 12 min 48 sec) 
Heartbeat CPU  1 instructions:   95000002 cycles:  218895526 heartbeat IPC: 0.21134 cumulative IPC: 0.22964 (Simulation time: 0 hr 12 min 49 sec) 
Heartbeat CPU  2 instructions:  108000000 cycles:  219134677 heartbeat IPC: 0.17938 cumulative IPC: 0.24890 (Simulation time: 0 hr 12 min 49 sec) 
Heartbeat CPU  0 instructions:   97000003 cycles:  219347528 heartbeat IPC: 0.21174 cumulative IPC: 0.24256 (Simulation time: 0 hr 12 min 50 sec) 
Heartbeat CPU  3 instructions:   92000000 cycles:  223283313 heartbeat IPC: 0.20970 cumulative IPC: 0.21170 (Simulation time: 0 hr 12 min 57 sec) 
Heartbeat CPU  1 instructions:   96000000 cycles:  223528634 heartbeat IPC: 0.21584 cumulative IPC: 0.22931 (Simulation time: 0 hr 12 min 58 sec) 
Heartbeat CPU  0 instructions:   98000002 cycles:  224141684 heartbeat IPC: 0.20859 cumulative IPC: 0.24174 (Simulation time: 0 hr 12 min 59 sec) 
Heartbeat CPU  2 instructions:  109000003 cycles:  224894806 heartbeat IPC: 0.17361 cumulative IPC: 0.24673 (Simulation time: 0 hr 13 min 0 sec) 
Heartbeat CPU  3 instructions:   93000000 cycles:  228053366 heartbeat IPC: 0.20964 cumulative IPC: 0.21165 (Simulation time: 0 hr 13 min 6 sec) 
Heartbeat CPU  1 instructions:   97000003 cycles:  228191877 heartbeat IPC: 0.21444 cumulative IPC: 0.22897 (Simulation time: 0 hr 13 min 6 sec) 
Heartbeat CPU  0 instructions:   99000000 cycles:  229092289 heartbeat IPC: 0.20200 cumulative IPC: 0.24077 (Simulation time: 0 hr 13 min 8 sec) 
Heartbeat CPU  2 instructions:  110000002 cycles:  230751704 heartbeat IPC: 0.17074 cumulative IPC: 0.24456 (Simulation time: 0 hr 13 min 11 sec) 
Heartbeat CPU  3 instructions:   94000000 cycles:  232792821 heartbeat IPC: 0.21099 cumulative IPC: 0.21163 (Simulation time: 0 hr 13 min 15 sec) 
Heartbeat CPU  1 instructions:   98000000 cycles:  232984047 heartbeat IPC: 0.20867 cumulative IPC: 0.22850 (Simulation time: 0 hr 13 min 16 sec) 
*** Reached end of trace for Core: 0 Repeating trace: /data3/STREAMING/traces/streaming_phase1_core0.trace.xz
Heartbeat CPU  0 instructions:  100000000 cycles:  233881103 heartbeat IPC: 0.20882 cumulative IPC: 0.24004 (Simulation time: 0 hr 13 min 17 sec) 
Heartbeat CPU  2 instructions:  111000001 cycles:  234968486 heartbeat IPC: 0.23715 cumulative IPC: 0.24441 (Simulation time: 0 hr 13 min 20 sec) 
Heartbeat CPU  2 instructions:  112000000 cycles:  236831549 heartbeat IPC: 0.53675 cumulative IPC: 0.24699 (Simulation time: 0 hr 13 min 24 sec) 
Heartbeat CPU  3 instructions:   95000000 cycles:  237516949 heartbeat IPC: 0.21168 cumulative IPC: 0.21164 (Simulation time: 0 hr 13 min 26 sec) 
Heartbeat CPU  1 instructions:   99000000 cycles:  237886127 heartbeat IPC: 0.20400 cumulative IPC: 0.22794 (Simulation time: 0 hr 13 min 27 sec) 
Heartbeat CPU  0 instructions:  101000001 cycles:  238567461 heartbeat IPC: 0.21339 cumulative IPC: 0.23945 (Simulation time: 0 hr 13 min 29 sec) 
Heartbeat CPU  2 instructions:  113000002 cycles:  238680473 heartbeat IPC: 0.54086 cumulative IPC: 0.24954 (Simulation time: 0 hr 13 min 29 sec) 
Heartbeat CPU  2 instructions:  114000000 cycles:  240641383 heartbeat IPC: 0.50997 cumulative IPC: 0.25191 (Simulation time: 0 hr 13 min 34 sec) 
Heartbeat CPU  3 instructions:   96000000 cycles:  242276652 heartbeat IPC: 0.21010 cumulative IPC: 0.21160 (Simulation time: 0 hr 13 min 38 sec) 
*** Reached end of trace for Core: 1 Repeating trace: /data3/STREAMING/traces/streaming_phase1_core1.trace.xz
Heartbeat CPU  2 instructions:  115000002 cycles:  242545869 heartbeat IPC: 0.52508 cumulative IPC: 0.25431 (Simulation time: 0 hr 13 min 38 sec) 
Heartbeat CPU  1 instructions:  100000000 cycles:  242586147 heartbeat IPC: 0.21277 cumulative IPC: 0.22761 (Simulation time: 0 hr 13 min 38 sec) 
Heartbeat CPU  0 instructions:  102000000 cycles:  243184844 heartbeat IPC: 0.21657 cumulative IPC: 0.23897 (Simulation time: 0 hr 13 min 40 sec) 
Heartbeat CPU  2 instructions:  116000000 cycles:  244390307 heartbeat IPC: 0.54217 cumulative IPC: 0.25674 (Simulation time: 0 hr 13 min 43 sec) 
Heartbeat CPU  2 instructions:  117000000 cycles:  246259650 heartbeat IPC: 0.53495 cumulative IPC: 0.25909 (Simulation time: 0 hr 13 min 47 sec) 
Heartbeat CPU  3 instructions:   97000002 cycles:  247054095 heartbeat IPC: 0.20932 cumulative IPC: 0.21155 (Simulation time: 0 hr 13 min 49 sec) 
Heartbeat CPU  1 instructions:  101000002 cycles:  247121113 heartbeat IPC: 0.22051 cumulative IPC: 0.22746 (Simulation time: 0 hr 13 min 49 sec) 
Heartbeat CPU  0 instructions:  103000000 cycles:  247966951 heartbeat IPC: 0.20911 cumulative IPC: 0.23832 (Simulation time: 0 hr 13 min 51 sec) 
Heartbeat CPU  2 instructions:  118000000 cycles:  248068286 heartbeat IPC: 0.55290 cumulative IPC: 0.26148 (Simulation time: 0 hr 13 min 52 sec) 
Heartbeat CPU  2 instructions:  119000003 cycles:  249868425 heartbeat IPC: 0.55551 cumulative IPC: 0.26384 (Simulation time: 0 hr 13 min 56 sec) 
Heartbeat CPU  2 instructions:  120000000 cycles:  251612602 heartbeat IPC: 0.57333 cumulative IPC: 0.26623 (Simulation time: 0 hr 14 min 0 sec) 
Heartbeat CPU  3 instructions:   98000003 cycles:  251735591 heartbeat IPC: 0.21361 cumulative IPC: 0.21159 (Simulation time: 0 hr 14 min 1 sec) 
Heartbeat CPU  1 instructions:  102000001 cycles:  251760381 heartbeat IPC: 0.21555 cumulative IPC: 0.22722 (Simulation time: 0 hr 14 min 1 sec) 
Heartbeat CPU  0 instructions:  104000000 cycles:  252611674 heartbeat IPC: 0.21530 cumulative IPC: 0.23785 (Simulation time: 0 hr 14 min 3 sec) 
Heartbeat CPU  2 instructions:  121000003 cycles:  253400874 heartbeat IPC: 0.55920 cumulative IPC: 0.26853 (Simulation time: 0 hr 14 min 5 sec) 
Heartbeat CPU  2 instructions:  122000001 cycles:  255423796 heartbeat IPC: 0.49433 cumulative IPC: 0.27052 (Simulation time: 0 hr 14 min 10 sec) 
Heartbeat CPU  1 instructions:  103000000 cycles:  256459483 heartbeat IPC: 0.21281 cumulative IPC: 0.22693 (Simulation time: 0 hr 14 min 12 sec) 
Heartbeat CPU  3 instructions:   99000002 cycles:  256659910 heartbeat IPC: 0.20307 cumulative IPC: 0.21141 (Simulation time: 0 hr 14 min 13 sec) 
Heartbeat CPU  0 instructions:  105000002 cycles:  257288466 heartbeat IPC: 0.21382 cumulative IPC: 0.23737 (Simulation time: 0 hr 14 min 14 sec) 
Heartbeat CPU  2 instructions:  123000001 cycles:  257292533 heartbeat IPC: 0.53512 cumulative IPC: 0.27265 (Simulation time: 0 hr 14 min 14 sec) 
Heartbeat CPU  2 instructions:  124000000 cycles:  259232250 heartbeat IPC: 0.51554 cumulative IPC: 0.27467 (Simulation time: 0 hr 14 min 19 sec) 
Heartbeat CPU  1 instructions:  104000000 cycles:  261068588 heartbeat IPC: 0.21696 cumulative IPC: 0.22673 (Simulation time: 0 hr 14 min 23 sec) 
Heartbeat CPU  2 instructions:  125000001 cycles:  261289995 heartbeat IPC: 0.48597 cumulative IPC: 0.27651 (Simulation time: 0 hr 14 min 24 sec) 
Heartbeat CPU  0 instructions:  106000002 cycles:  261355628 heartbeat IPC: 0.24587 cumulative IPC: 0.23751 (Simulation time: 0 hr 14 min 24 sec) 
*** Reached end of trace for Core: 3 Repeating trace: /data3/STREAMING/traces/streaming_phase1_core3.trace.xz
Heartbeat CPU  3 instructions:  100000000 cycles:  261686358 heartbeat IPC: 0.19895 cumulative IPC: 0.21115 (Simulation time: 0 hr 14 min 25 sec) 
Heartbeat CPU  2 instructions:  126000003 cycles:  263080336 heartbeat IPC: 0.55855 cumulative IPC: 0.27864 (Simulation time: 0 hr 14 min 28 sec) 
Heartbeat CPU  2 instructions:  127000001 cycles:  264862793 heartbeat IPC: 0.56102 cumulative IPC: 0.28074 (Simulation time: 0 hr 14 min 33 sec) 
Heartbeat CPU  0 instructions:  107000001 cycles:  265455339 heartbeat IPC: 0.24392 cumulative IPC: 0.23762 (Simulation time: 0 hr 14 min 34 sec) 
Heartbeat CPU  1 instructions:  105000000 cycles:  265765626 heartbeat IPC: 0.21290 cumulative IPC: 0.22646 (Simulation time: 0 hr 14 min 35 sec) 
Heartbeat CPU  3 instructions:  101000002 cycles:  266398059 heartbeat IPC: 0.21224 cumulative IPC: 0.21117 (Simulation time: 0 hr 14 min 37 sec) 
Heartbeat CPU  2 instructions:  128000000 cycles:  266649656 heartbeat IPC: 0.55964 cumulative IPC: 0.28281 (Simulation time: 0 hr 14 min 37 sec) 
Heartbeat CPU  2 instructions:  129000002 cycles:  268452842 heartbeat IPC: 0.55458 cumulative IPC: 0.28483 (Simulation time: 0 hr 14 min 42 sec) 
Heartbeat CPU  0 instructions:  108000000 cycles:  269969106 heartbeat IPC: 0.22154 cumulative IPC: 0.23733 (Simulation time: 0 hr 14 min 45 sec) 
Heartbeat CPU  2 instructions:  130000003 cycles:  270296204 heartbeat IPC: 0.54249 cumulative IPC: 0.28677 (Simulation time: 0 hr 14 min 46 sec) 
Heartbeat CPU  1 instructions:  106000002 cycles:  270489607 heartbeat IPC: 0.21169 cumulative IPC: 0.22618 (Simulation time: 0 hr 14 min 47 sec) 
Heartbeat CPU  3 instructions:  102000000 cycles:  271122657 heartbeat IPC: 0.21166 cumulative IPC: 0.21118 (Simulation time: 0 hr 14 min 48 sec) 
Heartbeat CPU  2 instructions:  131000000 cycles:  272173249 heartbeat IPC: 0.53275 cumulative IPC: 0.28864 (Simulation time: 0 hr 14 min 51 sec) 
Heartbeat CPU  2 instructions:  132000000 cycles:  274030132 heartbeat IPC: 0.53854 cumulative IPC: 0.29051 (Simulation time: 0 hr 14 min 55 sec) 
Heartbeat CPU  0 instructions:  109000002 cycles:  274634116 heartbeat IPC: 0.21436 cumulative IPC: 0.23690 (Simulation time: 0 hr 14 min 57 sec) 
Heartbeat CPU  1 instructions:  107000002 cycles:  274960206 heartbeat IPC: 0.22368 cumulative IPC: 0.22613 (Simulation time: 0 hr 14 min 58 sec) 
Heartbeat CPU  3 instructions:  103000003 cycles:  275775772 heartbeat IPC: 0.21491 cumulative IPC: 0.21125 (Simulation time: 0 hr 15 min 0 sec) 
Heartbeat CPU  2 instructions:  133000003 cycles:  275851857 heartbeat IPC: 0.54893 cumulative IPC: 0.29239 (Simulation time: 0 hr 15 min 0 sec) 
Heartbeat CPU  2 instructions:  134000002 cycles:  277658643 heartbeat IPC: 0.55347 cumulative IPC: 0.29426 (Simulation time: 0 hr 15 min 4 sec) 
Heartbeat CPU  0 instructions:  110000001 cycles:  279336417 heartbeat IPC: 0.21266 cumulative IPC: 0.23645 (Simulation time: 0 hr 15 min 8 sec) 
Heartbeat CPU  2 instructions:  135000000 cycles:  279496606 heartbeat IPC: 0.54408 cumulative IPC: 0.29607 (Simulation time: 0 hr 15 min 9 sec) 
Heartbeat CPU  1 instructions:  108000000 cycles:  279600994 heartbeat IPC: 0.21548 cumulative IPC: 0.22594 (Simulation time: 0 hr 15 min 9 sec) 
Heartbeat CPU  3 instructions:  104000000 cycles:  280518014 heartbeat IPC: 0.21087 cumulative IPC: 0.21124 (Simulation time: 0 hr 15 min 11 sec) 
Heartbeat CPU  2 instructions:  136000000 cycles:  281429024 heartbeat IPC: 0.51749 cumulative IPC: 0.29774 (Simulation time: 0 hr 15 min 13 sec) 
Heartbeat CPU  0 instructions:  111000001 cycles:  284000482 heartbeat IPC: 0.21441 cumulative IPC: 0.23605 (Simulation time: 0 hr 15 min 19 sec) 
Heartbeat CPU  1 instructions:  109000001 cycles:  284328752 heartbeat IPC: 0.21152 cumulative IPC: 0.22567 (Simulation time: 0 hr 15 min 19 sec) 
Heartbeat CPU  3 instructions:  105000001 cycles:  285318011 heartbeat IPC: 0.20833 cumulative IPC: 0.21119 (Simulation time: 0 hr 15 min 21 sec) 
Heartbeat CPU  2 instructions:  137000000 cycles:  285537462 heartbeat IPC: 0.24340 cumulative IPC: 0.29688 (Simulation time: 0 hr 15 min 21 sec) 
Heartbeat CPU  3 instructions:  106000002 cycles:  286906969 heartbeat IPC: 0.62934 cumulative IPC: 0.21373 (Simulation time: 0 hr 15 min 25 sec) 
Heartbeat CPU  0 instructions:  112000000 cycles:  288648883 heartbeat IPC: 0.21513 cumulative IPC: 0.23568 (Simulation time: 0 hr 15 min 28 sec) 
Heartbeat CPU  1 instructions:  110000003 cycles:  289206134 heartbeat IPC: 0.20503 cumulative IPC: 0.22529 (Simulation time: 0 hr 15 min 29 sec) 
Heartbeat CPU  2 instructions:  138000002 cycles:  291134324 heartbeat IPC: 0.17867 cumulative IPC: 0.29439 (Simulation time: 0 hr 15 min 33 sec) 
Heartbeat CPU  3 instructions:  107000000 cycles:  291414887 heartbeat IPC: 0.22183 cumulative IPC: 0.21387 (Simulation time: 0 hr 15 min 34 sec) 
Heartbeat CPU  0 instructions:  113000002 cycles:  293241306 heartbeat IPC: 0.21775 cumulative IPC: 0.23537 (Simulation time: 0 hr 15 min 37 sec) 
Heartbeat CPU  1 instructions:  111000003 cycles:  293888889 heartbeat IPC: 0.21355 cumulative IPC: 0.22509 (Simulation time: 0 hr 15 min 38 sec) 
Heartbeat CPU  3 instructions:  108000000 cycles:  296031798 heartbeat IPC: 0.21660 cumulative IPC: 0.21391 (Simulation time: 0 hr 15 min 42 sec) 
Heartbeat CPU  2 instructions:  139000001 cycles:  296888007 heartbeat IPC: 0.17380 cumulative IPC: 0.29183 (Simulation time: 0 hr 15 min 44 sec) 
Heartbeat CPU  0 instructions:  114000001 cycles:  297966364 heartbeat IPC: 0.21164 cumulative IPC: 0.23496 (Simulation time: 0 hr 15 min 46 sec) 
Heartbeat CPU  1 instructions:  112000000 cycles:  298618217 heartbeat IPC: 0.21145 cumulative IPC: 0.22485 (Simulation time: 0 hr 15 min 47 sec) 
Heartbeat CPU  3 instructions:  109000000 cycles:  300768864 heartbeat IPC: 0.21110 cumulative IPC: 0.21387 (Simulation time: 0 hr 15 min 52 sec) 
Heartbeat CPU  2 instructions:  140000000 cycles:  302453556 heartbeat IPC: 0.17968 cumulative IPC: 0.28958 (Simulation time: 0 hr 15 min 55 sec) 
Heartbeat CPU  0 instructions:  115000001 cycles:  302637178 heartbeat IPC: 0.21410 cumulative IPC: 0.23461 (Simulation time: 0 hr 15 min 55 sec) 
Heartbeat CPU  1 instructions:  113000001 cycles:  303394650 heartbeat IPC: 0.20936 cumulative IPC: 0.22458 (Simulation time: 0 hr 15 min 57 sec) 
Heartbeat CPU  3 instructions:  110000000 cycles:  305549387 heartbeat IPC: 0.20918 cumulative IPC: 0.21379 (Simulation time: 0 hr 16 min 1 sec) 
Heartbeat CPU  0 instructions:  116000000 cycles:  307338825 heartbeat IPC: 0.21269 cumulative IPC: 0.23424 (Simulation time: 0 hr 16 min 4 sec) 
Heartbeat CPU  2 instructions:  141000001 cycles:  308100645 heartbeat IPC: 0.17708 cumulative IPC: 0.28733 (Simulation time: 0 hr 16 min 6 sec) 
Heartbeat CPU  1 instructions:  114000003 cycles:  308128849 heartbeat IPC: 0.21123 cumulative IPC: 0.22436 (Simulation time: 0 hr 16 min 6 sec) 
Heartbeat CPU  3 instructions:  111000001 cycles:  310209458 heartbeat IPC: 0.21459 cumulative IPC: 0.21380 (Simulation time: 0 hr 16 min 10 sec) 
Heartbeat CPU  0 instructions:  117000002 cycles:  311955299 heartbeat IPC: 0.21662 cumulative IPC: 0.23396 (Simulation time: 0 hr 16 min 13 sec) 
Heartbeat CPU  1 instructions:  115000000 cycles:  312907145 heartbeat IPC: 0.20928 cumulative IPC: 0.22411 (Simulation time: 0 hr 16 min 15 sec) 
Heartbeat CPU  2 instructions:  142000000 cycles:  313856168 heartbeat IPC: 0.17375 cumulative IPC: 0.28506 (Simulation time: 0 hr 16 min 17 sec) 
Heartbeat CPU  3 instructions:  112000000 cycles:  314833857 heartbeat IPC: 0.21624 cumulative IPC: 0.21384 (Simulation time: 0 hr 16 min 19 sec) 
Heartbeat CPU  0 instructions:  118000001 cycles:  316595866 heartbeat IPC: 0.21549 cumulative IPC: 0.23366 (Simulation time: 0 hr 16 min 22 sec) 
Heartbeat CPU  1 instructions:  116000000 cycles:  317455909 heartbeat IPC: 0.21984 cumulative IPC: 0.22404 (Simulation time: 0 hr 16 min 24 sec) 
Heartbeat CPU  3 instructions:  113000002 cycles:  319399408 heartbeat IPC: 0.21903 cumulative IPC: 0.21392 (Simulation time: 0 hr 16 min 28 sec) 
Heartbeat CPU  2 instructions:  143000001 cycles:  319655875 heartbeat IPC: 0.17242 cumulative IPC: 0.28284 (Simulation time: 0 hr 16 min 28 sec) 
Heartbeat CPU  0 instructions:  119000002 cycles:  321161449 heartbeat IPC: 0.21903 cumulative IPC: 0.23344 (Simulation time: 0 hr 16 min 31 sec) 
Heartbeat CPU  1 instructions:  117000000 cycles:  322093848 heartbeat IPC: 0.21561 cumulative IPC: 0.22391 (Simulation time: 0 hr 16 min 33 sec) 
Heartbeat CPU  3 instructions:  114000001 cycles:  324087152 heartbeat IPC: 0.21332 cumulative IPC: 0.21391 (Simulation time: 0 hr 16 min 37 sec) 
Heartbeat CPU  2 instructions:  144000000 cycles:  325459621 heartbeat IPC: 0.17230 cumulative IPC: 0.28070 (Simulation time: 0 hr 16 min 40 sec) 
Heartbeat CPU  0 instructions:  120000000 cycles:  325724025 heartbeat IPC: 0.21917 cumulative IPC: 0.23322 (Simulation time: 0 hr 16 min 40 sec) 
Heartbeat CPU  1 instructions:  118000001 cycles:  326681786 heartbeat IPC: 0.21796 cumulative IPC: 0.22382 (Simulation time: 0 hr 16 min 42 sec) 
Heartbeat CPU  3 instructions:  115000003 cycles:  328756297 heartbeat IPC: 0.21417 cumulative IPC: 0.21391 (Simulation time: 0 hr 16 min 46 sec) 
Heartbeat CPU  0 instructions:  121000003 cycles:  330243963 heartbeat IPC: 0.22124 cumulative IPC: 0.23304 (Simulation time: 0 hr 16 min 49 sec) 
Heartbeat CPU  1 instructions:  119000003 cycles:  331216028 heartbeat IPC: 0.22054 cumulative IPC: 0.22377 (Simulation time: 0 hr 16 min 51 sec) 
Heartbeat CPU  2 instructions:  145000003 cycles:  331223684 heartbeat IPC: 0.17349 cumulative IPC: 0.27868 (Simulation time: 0 hr 16 min 51 sec) 
Heartbeat CPU  3 instructions:  116000000 cycles:  333307336 heartbeat IPC: 0.21973 cumulative IPC: 0.21400 (Simulation time: 0 hr 16 min 55 sec) 
Heartbeat CPU  0 instructions:  122000001 cycles:  334831298 heartbeat IPC: 0.21799 cumulative IPC: 0.23282 (Simulation time: 0 hr 16 min 58 sec) 
Heartbeat CPU  1 instructions:  120000000 cycles:  335719583 heartbeat IPC: 0.22205 cumulative IPC: 0.22375 (Simulation time: 0 hr 17 min 0 sec) 
Heartbeat CPU  2 instructions:  146000001 cycles:  337090837 heartbeat IPC: 0.17044 cumulative IPC: 0.27664 (Simulation time: 0 hr 17 min 2 sec) 
Heartbeat CPU  3 instructions:  117000000 cycles:  337963579 heartbeat IPC: 0.21477 cumulative IPC: 0.21401 (Simulation time: 0 hr 17 min 4 sec) 
Heartbeat CPU  0 instructions:  123000000 cycles:  339602923 heartbeat IPC: 0.20957 cumulative IPC: 0.23247 (Simulation time: 0 hr 17 min 7 sec) 
Heartbeat CPU  1 instructions:  121000002 cycles:  340252338 heartbeat IPC: 0.22062 cumulative IPC: 0.22370 (Simulation time: 0 hr 17 min 8 sec) 
Heartbeat CPU  3 instructions:  118000002 cycles:  342628148 heartbeat IPC: 0.21438 cumulative IPC: 0.21402 (Simulation time: 0 hr 17 min 13 sec) 
Heartbeat CPU  2 instructions:  147000002 cycles:  342926074 heartbeat IPC: 0.17137 cumulative IPC: 0.27470 (Simulation time: 0 hr 17 min 13 sec) 
Heartbeat CPU  0 instructions:  124000000 cycles:  344346033 heartbeat IPC: 0.21083 cumulative IPC: 0.23215 (Simulation time: 0 hr 17 min 16 sec) 
Heartbeat CPU  1 instructions:  122000003 cycles:  344831640 heartbeat IPC: 0.21837 cumulative IPC: 0.22362 (Simulation time: 0 hr 17 min 17 sec) 
Heartbeat CPU  3 instructions:  119000000 cycles:  347186085 heartbeat IPC: 0.21940 cumulative IPC: 0.21409 (Simulation time: 0 hr 17 min 22 sec) 
Heartbeat CPU  2 instructions:  148000000 cycles:  348668110 heartbeat IPC: 0.17415 cumulative IPC: 0.27292 (Simulation time: 0 hr 17 min 24 sec) 
Heartbeat CPU  0 instructions:  125000002 cycles:  349194273 heartbeat IPC: 0.20626 cumulative IPC: 0.23176 (Simulation time: 0 hr 17 min 25 sec) 
Heartbeat CPU  1 instructions:  123000001 cycles:  349290779 heartbeat IPC: 0.22426 cumulative IPC: 0.22363 (Simulation time: 0 hr 17 min 26 sec) 
Heartbeat CPU  3 instructions:  120000000 cycles:  351736206 heartbeat IPC: 0.21977 cumulative IPC: 0.21417 (Simulation time: 0 hr 17 min 30 sec) 
Heartbeat CPU  0 instructions:  126000001 cycles:  353862411 heartbeat IPC: 0.21422 cumulative IPC: 0.23151 (Simulation time: 0 hr 17 min 34 sec) 
[...]
depth_1_delta_35 86
depth_1_delta_38 67
depth_1_delta_-29 51
depth_1_delta_19 48
depth_1_delta_-31 24
depth_1_delta_-62 21
depth_1_delta_-44 16
depth_1_delta_-36 15
depth_1_delta_56 14
depth_1_delta_46 11
depth_1_delta_48 9
depth_1_delta_-60 8
depth_1_delta_-53 7
depth_1_delta_17 6
depth_1_delta_18 1
depth_1_delta_20 1
depth_1_delta_43 1
depth_2_delta_1 1705881
depth_2_delta_-1 210245
depth_2_delta_2 36933
depth_2_delta_5 36777
depth_2_delta_15 17869
depth_2_delta_-15 16961
depth_2_delta_-7 15863
depth_2_delta_9 15765
depth_2_delta_-33 14496
depth_2_delta_31 12542
depth_2_delta_7 11176
depth_2_delta_-9 8928
depth_2_delta_6 7820
depth_2_delta_-8 7756
depth_2_delta_-2 7746
depth_2_delta_-17 7595
depth_2_delta_3 6483
depth_2_delta_-3 6361
depth_2_delta_12 5435
depth_2_delta_25 4498
depth_2_delta_-11 4045
depth_2_delta_-5 3511
depth_2_delta_-32 3024
depth_2_delta_-6 2710
depth_2_delta_10 2126
depth_2_delta_-46 1843
depth_2_delta_11 1372
depth_2_delta_8 1350
depth_2_delta_-16 1021
depth_2_delta_-26 758
depth_2_delta_30 734
depth_2_delta_-4 583
depth_2_delta_26 511
depth_2_delta_4 393
depth_2_delta_-10 273
depth_2_delta_-27 196
depth_2_delta_32 194
depth_2_delta_-21 191
depth_2_delta_21 186
depth_2_delta_23 174
depth_2_delta_-14 144
depth_2_delta_-24 127
depth_2_delta_24 47
depth_2_delta_-34 28
depth_2_delta_34 27
depth_2_delta_-13 16
depth_2_delta_13 15
depth_2_delta_14 15
depth_2_delta_-38 5
depth_2_delta_35 5
depth_2_delta_-18 5
depth_2_delta_22 4
depth_2_delta_-20 3
depth_2_delta_-37 3
depth_2_delta_-25 3
depth_2_delta_-39 2
depth_2_delta_41 1
depth_3_delta_1 416370
depth_3_delta_-1 66399
depth_3_delta_-33 9599
depth_3_delta_15 7176
depth_3_delta_-15 6680
depth_3_delta_-17 1429
depth_3_delta_-9 1180
depth_3_delta_6 993
depth_3_delta_2 842
depth_3_delta_31 784
depth_3_delta_3 604
depth_3_delta_25 453
depth_3_delta_7 440
depth_3_delta_-8 390
depth_3_delta_-11 253
depth_3_delta_-2 186
depth_3_delta_5 151
depth_3_delta_-6 132
depth_3_delta_-46 99
depth_3_delta_-4 71
depth_3_delta_4 35
depth_3_delta_9 10
depth_3_delta_-16 8
depth_3_delta_-5 5
depth_3_delta_-7 4
depth_3_delta_13 3
depth_3_delta_14 2
depth_3_delta_24 1
depth_3_delta_-24 1
depth_4_delta_1 185172
depth_4_delta_-1 7732
depth_4_delta_-33 2114
depth_4_delta_-15 1290
depth_4_delta_15 1172
depth_4_delta_-11 75
depth_4_delta_2 11
depth_4_delta_7 7
depth_4_delta_31 3
depth_4_delta_6 2
depth_4_delta_-6 2
depth_4_delta_5 1
depth_5_delta_1 119331
depth_5_delta_-1 606
depth_5_delta_15 91
depth_5_delta_-15 65
depth_5_delta_-11 1
depth_6_delta_1 86900
depth_6_delta_-1 126
depth_6_delta_-15 2
depth_6_delta_15 1
depth_7_delta_1 68885
depth_7_delta_-1 30
depth_8_delta_1 56662
depth_9_delta_1 31240
depth_10_delta_1 9906
depth_11_delta_1 88

spp.pref.total 8584790
spp.pref.at_L2 233575
spp.pref.at_LLC 8351215

spp.depth.max 11
spp.depth.min 0
spp.depth.avg 1

spp.breadth.max 2
spp.breadth.min 0
spp.breadth.avg 0

delta_1 9668196
delta_-1 604481
delta_2 364137
delta_5 200400
delta_3 118144
delta_-3 77321
delta_6 63404
delta_-2 57947
delta_-7 54114
delta_9 52238
delta_-33 47207
delta_-5 45401
delta_-11 45136
delta_7 44620
delta_-17 44158
delta_15 44139
delta_-8 43734
delta_4 43586
delta_-9 42875
delta_-15 42345
delta_-4 40082
delta_31 29767
delta_-32 28509
delta_12 28344
delta_30 25908
delta_-10 23014
delta_26 20177
delta_10 19783
delta_25 18250
delta_-26 17513
delta_-16 16878
delta_-6 15699
delta_8 14187
delta_-46 13805
delta_32 13594
delta_-13 13439
delta_-27 12688
delta_11 11575
delta_-18 10523
delta_-24 9846
delta_-25 7518
delta_-30 5091
delta_-23 4247
delta_-14 3595
delta_-28 3336
delta_23 3124
delta_21 2239
delta_-34 2019
delta_34 1814
delta_-21 1587
delta_-12 1389
delta_-41 1332
delta_22 1212
delta_39 1004
delta_24 809
delta_-20 707
delta_13 558
delta_-37 362
delta_-19 332
delta_-39 251
delta_-43 171
delta_-35 152
delta_16 144
delta_41 122
delta_28 106
delta_14 102
delta_42 85
delta_-36 61
delta_19 51
delta_36 50
delta_56 38
delta_40 25
delta_33 24
delta_17 17
delta_20 15
delta_-62 13
delta_52 12
delta_-29 11
delta_35 11
delta_43 10
delta_-45 10
delta_-22 5
delta_-40 4
delta_44 4
delta_18 4
delta_50 1
delta_54 1

depth_1_delta_1 7400794
depth_1_delta_-1 326034
depth_1_delta_2 322359
depth_1_delta_5 163269
depth_1_delta_3 111095
depth_1_delta_-3 71122
depth_1_delta_6 55851
depth_1_delta_-2 46112
depth_1_delta_4 43392
depth_1_delta_-5 42388
depth_1_delta_-11 40971
depth_1_delta_-4 39163
depth_1_delta_-7 38131
depth_1_delta_-8 36479
depth_1_delta_9 36442
depth_1_delta_-17 36175
depth_1_delta_-9 33414
depth_1_delta_7 32989
depth_1_delta_-32 26011
depth_1_delta_30 24980
depth_1_delta_-10 22595
depth_1_delta_-33 22517
depth_1_delta_12 22321
depth_1_delta_15 20547
depth_1_delta_26 19499
depth_1_delta_-15 19450
depth_1_delta_10 16920
depth_1_delta_-26 16824
depth_1_delta_-16 15978
depth_1_delta_31 15884
depth_1_delta_-6 13447
depth_1_delta_-13 13426
depth_1_delta_32 13418
depth_1_delta_8 13308
depth_1_delta_25 12880
depth_1_delta_-27 12511
depth_1_delta_-46 11523
depth_1_delta_-18 10487
depth_1_delta_11 10129
depth_1_delta_-24 9782
depth_1_delta_-25 7513
depth_1_delta_-30 5060
depth_1_delta_-23 4247
depth_1_delta_-14 3487
depth_1_delta_-28 3336
depth_1_delta_23 2909
depth_1_delta_21 1992
depth_1_delta_-34 1630
depth_1_delta_34 1448
depth_1_delta_-21 1388
depth_1_delta_-12 1387
depth_1_delta_-41 1326
depth_1_delta_22 1212
depth_1_delta_39 1004
depth_1_delta_24 800
depth_1_delta_-20 706
depth_1_delta_13 554
depth_1_delta_-37 361
depth_1_delta_-19 332
depth_1_delta_-39 251
depth_1_delta_-43 171
depth_1_delta_-35 152
depth_1_delta_16 144
depth_1_delta_41 122
depth_1_delta_28 106
depth_1_delta_14 100
depth_1_delta_42 85
depth_1_delta_-36 59
depth_1_delta_36 50
depth_1_delta_19 48
depth_1_delta_56 35
depth_1_delta_40 25
depth_1_delta_33 24
depth_1_delta_17 17
depth_1_delta_20 15
depth_1_delta_-62 13
depth_1_delta_52 12
depth_1_delta_-29 11
depth_1_delta_35 11
depth_1_delta_43 10
depth_1_delta_-45 10
depth_1_delta_-22 5
depth_1_delta_-40 4
depth_1_delta_44 4
depth_1_delta_18 4
depth_1_delta_50 1
depth_1_delta_54 1
depth_2_delta_1 1593903
depth_2_delta_-1 210124
depth_2_delta_2 41111
depth_2_delta_5 37047
depth_2_delta_15 16658
depth_2_delta_-7 15974
depth_2_delta_-15 15931
depth_2_delta_9 15782
depth_2_delta_-33 14310
depth_2_delta_31 13024
depth_2_delta_-2 11550
depth_2_delta_7 11196
depth_2_delta_-9 8220
depth_2_delta_-17 7132
depth_2_delta_6 6852
depth_2_delta_-8 6840
depth_2_delta_3 6543
depth_2_delta_-3 6199
depth_2_delta_12 6023
depth_2_delta_25 4934
depth_2_delta_-11 3912
depth_2_delta_-5 3012
depth_2_delta_10 2852
depth_2_delta_-32 2498
depth_2_delta_-6 2198
depth_2_delta_-46 2174
depth_2_delta_11 1446
depth_2_delta_30 928
depth_2_delta_-16 900
depth_2_delta_-4 897
depth_2_delta_8 859
depth_2_delta_-26 689
depth_2_delta_26 678
depth_2_delta_-10 410
depth_2_delta_-34 373
depth_2_delta_34 366
depth_2_delta_23 215
depth_2_delta_21 197
depth_2_delta_4 194
depth_2_delta_-21 183
depth_2_delta_-27 177
depth_2_delta_32 176
depth_2_delta_-14 108
depth_2_delta_-24 64
depth_2_delta_-18 36
depth_2_delta_-30 31
depth_2_delta_-13 13
depth_2_delta_24 9
depth_2_delta_-41 6
depth_2_delta_-25 5
depth_2_delta_13 4
depth_2_delta_56 3
depth_2_delta_19 3
depth_2_delta_-12 2
depth_2_delta_-36 2
depth_2_delta_14 2
depth_2_delta_-20 1
depth_2_delta_-37 1
depth_3_delta_1 332550
depth_3_delta_-1 61661
depth_3_delta_-33 8768
depth_3_delta_15 6003
depth_3_delta_-15 5956
depth_3_delta_-9 1236
depth_3_delta_31 857
depth_3_delta_-17 851
depth_3_delta_6 701
depth_3_delta_2 660
depth_3_delta_3 506
depth_3_delta_25 436
depth_3_delta_7 425
depth_3_delta_-8 415
depth_3_delta_-2 285
depth_3_delta_-11 192
depth_3_delta_-46 108
depth_3_delta_5 83
depth_3_delta_-6 54
depth_3_delta_21 49
depth_3_delta_-4 22
depth_3_delta_8 20
depth_3_delta_-21 16
depth_3_delta_-34 16
depth_3_delta_9 14
depth_3_delta_10 11
depth_3_delta_-7 9
depth_3_delta_-10 9
depth_3_delta_-5 1
depth_4_delta_1 121994
depth_4_delta_-1 6126
depth_4_delta_-33 1612
depth_4_delta_-15 921
depth_4_delta_15 845
depth_4_delta_-11 61
depth_4_delta_7 10
depth_4_delta_2 7
depth_4_delta_-9 5
depth_4_delta_31 2
depth_4_delta_21 1
depth_4_delta_5 1
depth_5_delta_1 71544
depth_5_delta_-1 490
depth_5_delta_15 82
depth_5_delta_-15 82
depth_6_delta_1 49630
depth_6_delta_-1 45
depth_6_delta_-15 5
depth_6_delta_15 4
depth_7_delta_1 39937
depth_7_delta_-1 1
depth_8_delta_1 33238
depth_9_delta_1 18651
depth_10_delta_1 5912
depth_11_delta_1 43

spp.pref.total 9879387
spp.pref.at_L2 666532
spp.pref.at_LLC 9212855

spp.depth.max 10
spp.depth.min 0
spp.depth.avg 1

spp.breadth.max 2
spp.breadth.min 0
spp.breadth.avg 0

delta_1 10618557
delta_2 85682
delta_3 31610
delta_-2 22499
delta_5 22309
delta_-1 22038
delta_7 16617
delta_-7 15486
delta_-13 14273
delta_-11 12865
delta_-14 12156
delta_-32 10876
delta_4 10800
delta_-5 10790
delta_-9 10345
delta_8 9838
delta_6 9607
delta_-3 8319
delta_25 8082
delta_14 6565
delta_-10 6129
delta_-16 5347
delta_-21 4930
delta_-24 4762
delta_15 4754
delta_28 4742
delta_31 4606
delta_-36 4555
delta_11 4289
delta_10 4183
delta_30 3571
delta_-6 2956
delta_16 2917
delta_18 2613
delta_-17 2447
delta_9 2414
delta_-19 2387
delta_42 2294
delta_-22 2231
delta_32 1847
delta_-4 1786
delta_-8 1681
delta_-33 1366
delta_12 1349
delta_-43 1266
delta_40 1251
delta_13 901
delta_-27 876
delta_-15 827
delta_23 738
delta_-40 604
delta_43 587
delta_-12 551
delta_19 335
delta_-37 322
delta_-25 306
delta_17 282
delta_-35 247
delta_24 184
delta_38 134
delta_39 130
delta_-34 92
delta_21 83
delta_-26 80
delta_-20 76
delta_-53 58
delta_-44 57
delta_-59 52
delta_-55 49
delta_54 44
delta_36 39
delta_22 37
delta_53 36
delta_29 28
delta_33 26
delta_-41 24
delta_-39 23
delta_-28 19
delta_27 17
delta_-51 9
delta_20 6
delta_-42 6
delta_55 4
delta_35 4
delta_-38 2
delta_-52 2

depth_1_delta_1 5075372
depth_1_delta_2 83990
depth_1_delta_3 30206
depth_1_delta_-2 21795
depth_1_delta_5 21775
depth_1_delta_-1 21323
depth_1_delta_7 16537
depth_1_delta_-13 14187
depth_1_delta_-11 12563
depth_1_delta_-7 12449
depth_1_delta_-32 10733
depth_1_delta_4 10705
depth_1_delta_-9 10238
depth_1_delta_8 9806
depth_1_delta_-14 9542
depth_1_delta_6 9467
depth_1_delta_-3 8282
depth_1_delta_-5 8093
depth_1_delta_25 7930
depth_1_delta_-10 6020
depth_1_delta_14 5999
depth_1_delta_-16 5213
depth_1_delta_-21 4925
depth_1_delta_15 4741
depth_1_delta_-24 4609
depth_1_delta_28 4493
depth_1_delta_-36 4271
depth_1_delta_31 4185
depth_1_delta_11 4173
depth_1_delta_10 4154
depth_1_delta_30 3567
depth_1_delta_-6 2921
depth_1_delta_16 2907
depth_1_delta_18 2531
depth_1_delta_9 2414
depth_1_delta_-17 2390
depth_1_delta_-19 2387
depth_1_delta_42 2235
depth_1_delta_-22 2230
depth_1_delta_32 1842
depth_1_delta_-4 1781
depth_1_delta_-8 1666
depth_1_delta_12 1349
depth_1_delta_-43 1266
depth_1_delta_40 1240
depth_1_delta_-33 860
depth_1_delta_-27 854
depth_1_delta_23 738
depth_1_delta_43 587
depth_1_delta_-40 578
depth_1_delta_-12 551
depth_1_delta_-15 499
depth_1_delta_13 490
depth_1_delta_-37 322
depth_1_delta_17 282
depth_1_delta_-25 252
depth_1_delta_-35 247
depth_1_delta_19 228
depth_1_delta_24 169
depth_1_delta_38 134
depth_1_delta_39 130
depth_1_delta_-34 92
depth_1_delta_21 83
depth_1_delta_-26 78
depth_1_delta_-20 76
depth_1_delta_-44 57
depth_1_delta_-59 52
depth_1_delta_-55 49
depth_1_delta_-53 44
depth_1_delta_54 44
depth_1_delta_36 39
depth_1_delta_22 37
depth_1_delta_53 36
depth_1_delta_29 28
depth_1_delta_33 26
depth_1_delta_-41 24
depth_1_delta_-39 23
depth_1_delta_-28 19
depth_1_delta_27 17
depth_1_delta_-51 9
depth_1_delta_20 6
depth_1_delta_-42 6
depth_1_delta_35 4
depth_1_delta_55 4
depth_1_delta_-52 2
depth_1_delta_-38 2
depth_2_delta_1 1558156
depth_2_delta_-7 2855
depth_2_delta_-14 2612
depth_2_delta_-5 2560
depth_2_delta_2 1692
depth_2_delta_3 1404
depth_2_delta_-1 650
depth_2_delta_-2 582
depth_2_delta_5 534
depth_2_delta_-33 506
depth_2_delta_31 421
depth_2_delta_14 337
depth_2_delta_-11 288
depth_2_delta_-36 284
depth_2_delta_28 249
depth_2_delta_-15 222
depth_2_delta_13 211
depth_2_delta_25 152
depth_2_delta_-32 143
depth_2_delta_-16 134
depth_2_delta_6 110
depth_2_delta_-10 109
depth_2_delta_-9 107
depth_2_delta_11 107
depth_2_delta_4 95
depth_2_delta_-24 88
depth_2_delta_-13 86
depth_2_delta_18 82
depth_2_delta_7 80
depth_2_delta_19 78
depth_2_delta_42 59
depth_2_delta_-17 57
depth_2_delta_-25 44
depth_2_delta_-3 37
depth_2_delta_-6 35
depth_2_delta_8 30
depth_2_delta_10 29
depth_2_delta_-40 26
depth_2_delta_-27 22
depth_2_delta_-8 15
depth_2_delta_24 15
depth_2_delta_-53 14
depth_2_delta_15 13
depth_2_delta_40 11
depth_2_delta_16 10
depth_2_delta_-21 5
depth_2_delta_-4 5
depth_2_delta_32 5
depth_2_delta_30 4
depth_2_delta_-26 2
depth_2_delta_-22 1
depth_3_delta_1 906853
depth_3_delta_14 183
depth_3_delta_-7 152
depth_3_delta_13 140
depth_3_delta_-5 105
depth_3_delta_-15 91
depth_3_delta_-2 70
depth_3_delta_-1 61
depth_3_delta_-24 61
depth_3_delta_19 27
depth_3_delta_6 26
depth_3_delta_-11 14
depth_3_delta_-25 10
depth_3_delta_11 9
depth_3_delta_8 2
depth_3_delta_-14 2
depth_4_delta_1 816439
depth_4_delta_13 59
depth_4_delta_14 44
depth_4_delta_-5 31
depth_4_delta_-7 29
depth_4_delta_-2 27
depth_4_delta_-15 14
depth_4_delta_-1 4
depth_4_delta_6 4
depth_4_delta_-24 4
depth_4_delta_19 2
depth_5_delta_1 765082
depth_5_delta_-2 18
depth_5_delta_14 2
depth_5_delta_-7 1
depth_5_delta_-5 1
depth_5_delta_13 1
depth_5_delta_-15 1
depth_6_delta_1 637008
depth_6_delta_-2 6
depth_7_delta_1 443014
depth_7_delta_-2 1
depth_8_delta_1 259371
depth_9_delta_1 147860
depth_10_delta_1 9402

spp.pref.total 8296462
spp.pref.at_L2 218113
spp.pref.at_LLC 8078349

spp.depth.max 10
spp.depth.min 0
spp.depth.avg 1

spp.breadth.max 2
spp.breadth.min 0
spp.breadth.avg 0

delta_1 9299921
delta_-1 594482
delta_2 352029
delta_5 206278
delta_3 118814
delta_-3 79497
delta_6 65653
delta_-2 55828
delta_-7 53626
delta_9 52346
delta_-5 50938
delta_-33 48620
delta_-17 45891
delta_-11 45263
delta_-9 44562
delta_7 44280
delta_-8 44105
delta_4 41866
delta_15 41058
delta_-4 40783
delta_-15 38818
delta_31 28975
delta_-32 28013
delta_12 27455
delta_30 23722
delta_-10 23107
delta_26 20144
delta_10 18611
delta_25 18062
delta_-6 17798
delta_-26 17458
delta_-16 16461
delta_8 14484
delta_-13 13871
delta_-46 13845
delta_32 13792
delta_-27 12197
delta_11 11976
delta_-24 10600
delta_-18 9055
delta_-25 7241
delta_-23 4216
delta_-14 3418
delta_-28 3134
delta_23 2867
delta_21 2763
delta_-30 2382
delta_-21 2119
delta_13 2053
delta_-34 1463
delta_24 1259
delta_-41 1217
delta_22 1058
delta_39 780
delta_34 722
delta_-20 706
delta_-12 524
delta_29 426
delta_-37 404
delta_16 297
delta_-35 260
delta_-19 229
delta_-39 223
delta_35 199
delta_14 190
delta_-43 167
delta_19 139
delta_42 95
delta_-36 94
delta_33 83
delta_41 74
delta_56 66
delta_-38 56
delta_36 56
delta_48 56
delta_52 33
delta_-49 27
delta_-44 25
delta_-29 24
delta_50 21
delta_-62 20
delta_20 19
delta_18 18
delta_38 16
delta_-60 9
delta_54 8
delta_40 8
delta_43 6
delta_46 6
delta_-40 6
delta_44 5
delta_-54 5
delta_55 3
delta_17 2
delta_27 2
delta_28 1

depth_1_delta_1 7285730
depth_1_delta_-1 324376
depth_1_delta_2 311367
depth_1_delta_5 169204
depth_1_delta_3 110467
depth_1_delta_-3 73111
depth_1_delta_6 56938
depth_1_delta_-5 47012
depth_1_delta_-2 44052
depth_1_delta_4 41502
depth_1_delta_-11 41244
depth_1_delta_-4 39668
depth_1_delta_-7 37359
depth_1_delta_-17 37300
depth_1_delta_9 36849
depth_1_delta_-8 36042
depth_1_delta_-9 33939
depth_1_delta_7 32719
depth_1_delta_-32 25133
depth_1_delta_-10 22801
depth_1_delta_30 22738
depth_1_delta_-33 22687
depth_1_delta_12 22202
depth_1_delta_15 19621
depth_1_delta_26 19522
depth_1_delta_-15 18487
depth_1_delta_-26 16709
depth_1_delta_10 16396
depth_1_delta_-16 15324
depth_1_delta_-6 15080
depth_1_delta_31 14840
depth_1_delta_-13 13857
depth_1_delta_8 13578
depth_1_delta_32 13508
depth_1_delta_25 12737
depth_1_delta_-27 12031
depth_1_delta_-46 11510
depth_1_delta_11 10766
depth_1_delta_-24 10326
depth_1_delta_-18 9034
depth_1_delta_-25 7241
depth_1_delta_-23 4215
depth_1_delta_-14 3331
depth_1_delta_-28 3134
depth_1_delta_23 2673
depth_1_delta_21 2448
depth_1_delta_-30 2382
depth_1_delta_13 2053
depth_1_delta_-21 1825
depth_1_delta_-34 1246
depth_1_delta_-41 1217
depth_1_delta_24 1090
depth_1_delta_22 1054
depth_1_delta_39 780
depth_1_delta_34 710
depth_1_delta_-20 691
depth_1_delta_-12 523
depth_1_delta_-37 404
depth_1_delta_29 342
depth_1_delta_16 297
depth_1_delta_-35 260
depth_1_delta_-19 229
depth_1_delta_-39 223
depth_1_delta_35 195
depth_1_delta_14 190
depth_1_delta_-43 167
depth_1_delta_19 139
depth_1_delta_42 95
depth_1_delta_-36 94
depth_1_delta_33 83
depth_1_delta_41 74
depth_1_delta_56 65
depth_1_delta_-38 56
depth_1_delta_36 56
depth_1_delta_48 56
depth_1_delta_52 33
depth_1_delta_-49 27
depth_1_delta_-44 25
depth_1_delta_-29 24
depth_1_delta_50 21
depth_1_delta_-62 20
depth_1_delta_20 19
depth_1_delta_18 18
depth_1_delta_38 16
depth_1_delta_-60 9
depth_1_delta_54 8
depth_1_delta_40 8
depth_1_delta_43 6
depth_1_delta_46 6
depth_1_delta_-40 6
depth_1_delta_44 5
depth_1_delta_-54 5
depth_1_delta_55 3
depth_1_delta_17 2
depth_1_delta_27 2
depth_1_delta_28 1
depth_2_delta_1 1567484
depth_2_delta_-1 200584
depth_2_delta_2 39121
depth_2_delta_5 36867
depth_2_delta_-7 16258
depth_2_delta_9 15487
depth_2_delta_15 15212
depth_2_delta_-33 14643
depth_2_delta_-15 14330
depth_2_delta_31 13145
depth_2_delta_-2 11202
depth_2_delta_7 10971
depth_2_delta_-9 9388
depth_2_delta_6 7774
depth_2_delta_3 7633
depth_2_delta_-8 7542
depth_2_delta_-17 7101
depth_2_delta_-3 6386
depth_2_delta_12 5253
depth_2_delta_25 4671
depth_2_delta_-5 3923
depth_2_delta_-11 3756
depth_2_delta_-32 2880
depth_2_delta_-6 2543
depth_2_delta_10 2185
depth_2_delta_-46 2116
depth_2_delta_11 1208
depth_2_delta_-16 1121
depth_2_delta_30 984
depth_2_delta_8 903
depth_2_delta_-4 845
depth_2_delta_-26 749
depth_2_delta_26 622
depth_2_delta_21 304
depth_2_delta_-10 303
depth_2_delta_4 300
depth_2_delta_-21 284
depth_2_delta_32 284
depth_2_delta_-24 260
depth_2_delta_-34 217
depth_2_delta_23 194
depth_2_delta_-27 166
depth_2_delta_24 164
depth_2_delta_-14 87
depth_2_delta_29 84
depth_2_delta_-18 21
depth_2_delta_-20 15
depth_2_delta_-13 14
depth_2_delta_34 12
depth_2_delta_22 4
depth_2_delta_35 4
depth_2_delta_-12 1
depth_2_delta_56 1
depth_2_delta_-23 1
depth_3_delta_1 310808
depth_3_delta_-1 62766
depth_3_delta_-33 9152
depth_3_delta_15 5408
depth_3_delta_-15 5086
depth_3_delta_2 1508
depth_3_delta_-17 1490
depth_3_delta_-9 1234
depth_3_delta_31 987
depth_3_delta_6 941
depth_3_delta_3 714
depth_3_delta_25 654
depth_3_delta_7 580
depth_3_delta_-2 574
depth_3_delta_-8 521
depth_3_delta_-4 261
depth_3_delta_-46 219
depth_3_delta_5 207
depth_3_delta_-11 202
depth_3_delta_-6 175
depth_3_delta_4 54
depth_3_delta_10 30
depth_3_delta_-16 16
depth_3_delta_-24 14
depth_3_delta_21 11
depth_3_delta_-21 10
depth_3_delta_9 10
depth_3_delta_-7 9
depth_3_delta_24 5
depth_3_delta_8 3
depth_3_delta_-10 3
depth_3_delta_-5 3
depth_3_delta_11 2
depth_4_delta_1 93256
depth_4_delta_-1 6526
depth_4_delta_-33 2138
depth_4_delta_-15 877
depth_4_delta_15 765
depth_4_delta_-11 61
depth_4_delta_2 33
depth_4_delta_4 10
depth_4_delta_7 10
depth_4_delta_-4 9
depth_4_delta_31 3
depth_4_delta_-9 1
depth_5_delta_1 28473
depth_5_delta_-1 229
depth_5_delta_15 52
depth_5_delta_-15 38
depth_6_delta_1 7054
depth_6_delta_-1 1
depth_7_delta_1 3979
depth_8_delta_1 2018
depth_9_delta_1 984
depth_10_delta_1 135

Channel_0_RQ_row_buffer_hit 475096
Channel_0_RQ_row_buffer_miss 1108645
Channel_0_WQ_row_buffer_hit 57801
Channel_0_WQ_row_buffer_miss 287347
Channel_0_WQ_full 0
Channel_0_dbus_congested 418844

Channel_1_RQ_row_buffer_hit 475012
Channel_1_RQ_row_buffer_miss 1108896
Channel_1_WQ_row_buffer_hit 56830
Channel_1_WQ_row_buffer_miss 287794
Channel_1_WQ_full 0
Channel_1_dbus_congested 414443

avg_congested_cycle 9

DRAM_bw_pochs 2852623
DRAM_bw_level_0 2705521
DRAM_bw_level_1 107964
DRAM_bw_level_2 31114
DRAM_bw_level_3 8024
