*************************************************
   ChampSim Multicore Out-of-Order Simulator
   Last compiled: Mar 31 2025 20:14:32
*************************************************
parsing config file: /data3/config/nopref.ini

trace_0 /data3/STREAMING/traces/streaming_phase2_core0.trace.xz
trace_1 /data3/STREAMING/traces/streaming_phase2_core1.trace.xz
trace_2 /data3/STREAMING/traces/streaming_phase2_core2.trace.xz
trace_3 /data3/STREAMING/traces/streaming_phase2_core3.trace.xz
adding L2C_PREFETCHER: NONE
adding L2C_PREFETCHER: NONE
adding L2C_PREFETCHER: NONE
adding L2C_PREFETCHER: NONE
Initialize SHIP state
warmup_instructions 50000000
simulation_instructions 150000000
champsim_seed 8854
measure_ipc 0
measure_ipc_epoch 1000
measure_dram_bw 1
measure_dram_bw_epoch 256
measure_cache_acc 1
measure_cache_acc_epoch 1024
l1d_perfect 0
l2c_perfect 0
llc_perfect 0
l1d_semi_perfect 0
l2c_semi_perfect 0
llc_semi_perfect 0
semi_perfect_cache_page_buffer_size 64

num_cpus 4
cpu_freq 4000
dram_io_freq 2400
page_size 4096
block_size 64
max_read_per_cycle 8
max_fill_per_cycle 1
dram_channels 2
log2_dram_channels 1
dram_ranks 1
dram_banks 8
dram_rows 65536
dram_columns 128
dram_row_size 8
dram_size 8192
dram_pages 2097152

fetch_width 6
decode_width 6
exec_width 4
lq_width 2
sq_width 2
retire_width 4
scheduler_size 128
branch_mispredict_penalty 20
rob_size 256
lq_size 72
sq_size 56
num_instr_destinations_sparc 4
num_instr_destinations 2
num_instr_sources 4

itlb_set 16
itlb_way 8
itlb_rq_size 16
itlb_wq_size 16
itlb_pq_size 0
itlb_mshr_size 8
itlb_latency 1

dtlb_set 16
dtlb_way 4
dtlb_rq_size 16
dtlb_wq_size 16
dtlb_pq_size 0
dtlb_mshr_size 8
dtlb_latency 1

stlb_set 128
stlb_way 12
stlb_rq_size 32
stlb_wq_size 32
stlb_pq_size 0
stlb_mshr_size 16
stlb_latency 8

l1i_size 32
l1i_set 64
l1i_way 8
l1i_rq_size 64
l1i_wq_size 64
l1i_pq_size 8
l1i_mshr_size 8
l1i_latency 1

l1d_size 32
l1d_set 64
l1d_way 8
l1d_rq_size 64
l1d_wq_size 64
l1d_pq_size 8
l1d_mshr_size 16
l1d_latency 4

l2c_size 256
l2c_set 512
l2c_way 8
l2c_rq_size 32
l2c_wq_size 32
l2c_pq_size 32
l2c_mshr_size 32
l2c_latency 10

llc_size 8192
llc_set 8192
llc_way 16
llc_rq_size 128
llc_wq_size 128
llc_pq_size 128
llc_mshr_size 256
llc_latency 20

dram_channel_width 8
dram_wq_size 64
dram_rq_size 64
tRP 15
tRCD 15
tCAS 12.5
dram_dbus_turn_around_time 30
dram_write_high_wm 56
dram_write_low_wm 48
min_dram_writes_per_switch 16
dram_mtps 2400
dram_dbus_return_time 13


Heartbeat CPU  3 instructions:    1000003 cycles:     278060 heartbeat IPC: 3.59636 cumulative IPC: 3.59636 (Simulation time: 0 hr 0 min 4 sec) 
Heartbeat CPU  2 instructions:    1000002 cycles:     307470 heartbeat IPC: 3.25236 cumulative IPC: 3.25236 (Simulation time: 0 hr 0 min 5 sec) 
Heartbeat CPU  3 instructions:    2000001 cycles:     547563 heartbeat IPC: 3.71053 cumulative IPC: 3.65255 (Simulation time: 0 hr 0 min 8 sec) 
Heartbeat CPU  0 instructions:    1000002 cycles:     556613 heartbeat IPC: 1.79658 cumulative IPC: 1.79658 (Simulation time: 0 hr 0 min 8 sec) 
Heartbeat CPU  1 instructions:    1000001 cycles:     585760 heartbeat IPC: 1.70719 cumulative IPC: 1.70719 (Simulation time: 0 hr 0 min 9 sec) 
Heartbeat CPU  2 instructions:    2000002 cycles:     604642 heartbeat IPC: 3.36505 cumulative IPC: 3.30775 (Simulation time: 0 hr 0 min 9 sec) 
Heartbeat CPU  3 instructions:    3000002 cycles:     818857 heartbeat IPC: 3.68604 cumulative IPC: 3.66365 (Simulation time: 0 hr 0 min 13 sec) 
Heartbeat CPU  2 instructions:    3000003 cycles:     893845 heartbeat IPC: 3.45778 cumulative IPC: 3.35629 (Simulation time: 0 hr 0 min 14 sec) 
Heartbeat CPU  0 instructions:    2000002 cycles:    1071431 heartbeat IPC: 1.94243 cumulative IPC: 1.86666 (Simulation time: 0 hr 0 min 17 sec) 
Heartbeat CPU  1 instructions:    2000003 cycles:    1075827 heartbeat IPC: 2.04054 cumulative IPC: 1.85904 (Simulation time: 0 hr 0 min 17 sec) 
Heartbeat CPU  3 instructions:    4000000 cycles:    1086603 heartbeat IPC: 3.73488 cumulative IPC: 3.68120 (Simulation time: 0 hr 0 min 17 sec) 
Heartbeat CPU  2 instructions:    4000000 cycles:    1185734 heartbeat IPC: 3.42595 cumulative IPC: 3.37344 (Simulation time: 0 hr 0 min 19 sec) 
Heartbeat CPU  3 instructions:    5000003 cycles:    1358054 heartbeat IPC: 3.68392 cumulative IPC: 3.68174 (Simulation time: 0 hr 0 min 22 sec) 
Heartbeat CPU  2 instructions:    5000000 cycles:    1483680 heartbeat IPC: 3.35631 cumulative IPC: 3.37000 (Simulation time: 0 hr 0 min 24 sec) 
Heartbeat CPU  0 instructions:    3000001 cycles:    1580801 heartbeat IPC: 1.96321 cumulative IPC: 1.89777 (Simulation time: 0 hr 0 min 25 sec) 
Heartbeat CPU  1 instructions:    3000001 cycles:    1584136 heartbeat IPC: 1.96730 cumulative IPC: 1.89378 (Simulation time: 0 hr 0 min 26 sec) 
Heartbeat CPU  3 instructions:    6000001 cycles:    1624988 heartbeat IPC: 3.74624 cumulative IPC: 3.69234 (Simulation time: 0 hr 0 min 26 sec) 
Heartbeat CPU  2 instructions:    6000002 cycles:    1774301 heartbeat IPC: 3.44091 cumulative IPC: 3.38161 (Simulation time: 0 hr 0 min 29 sec) 
Heartbeat CPU  3 instructions:    7000000 cycles:    1891314 heartbeat IPC: 3.75479 cumulative IPC: 3.70113 (Simulation time: 0 hr 0 min 31 sec) 
Heartbeat CPU  0 instructions:    4000000 cycles:    2058338 heartbeat IPC: 2.09408 cumulative IPC: 1.94332 (Simulation time: 0 hr 0 min 34 sec) 
Heartbeat CPU  2 instructions:    7000003 cycles:    2064828 heartbeat IPC: 3.44202 cumulative IPC: 3.39011 (Simulation time: 0 hr 0 min 34 sec) 
Heartbeat CPU  1 instructions:    4000000 cycles:    2070377 heartbeat IPC: 2.05659 cumulative IPC: 1.93202 (Simulation time: 0 hr 0 min 34 sec) 
Heartbeat CPU  3 instructions:    8000000 cycles:    2159875 heartbeat IPC: 3.72355 cumulative IPC: 3.70392 (Simulation time: 0 hr 0 min 35 sec) 
Heartbeat CPU  2 instructions:    8000000 cycles:    2358699 heartbeat IPC: 3.40284 cumulative IPC: 3.39170 (Simulation time: 0 hr 0 min 39 sec) 
Heartbeat CPU  3 instructions:    9000002 cycles:    2427146 heartbeat IPC: 3.74153 cumulative IPC: 3.70806 (Simulation time: 0 hr 0 min 40 sec) 
Heartbeat CPU  0 instructions:    5000001 cycles:    2551604 heartbeat IPC: 2.02731 cumulative IPC: 1.95955 (Simulation time: 0 hr 0 min 42 sec) 
Heartbeat CPU  1 instructions:    5000001 cycles:    2560682 heartbeat IPC: 2.03955 cumulative IPC: 1.95261 (Simulation time: 0 hr 0 min 42 sec) 
Heartbeat CPU  2 instructions:    9000002 cycles:    2650529 heartbeat IPC: 3.42666 cumulative IPC: 3.39555 (Simulation time: 0 hr 0 min 44 sec) 
Heartbeat CPU  3 instructions:   10000003 cycles:    2932082 heartbeat IPC: 1.98045 cumulative IPC: 3.41055 (Simulation time: 0 hr 0 min 47 sec) 
Heartbeat CPU  0 instructions:    6000000 cycles:    3020712 heartbeat IPC: 2.13170 cumulative IPC: 1.98629 (Simulation time: 0 hr 0 min 48 sec) 
Heartbeat CPU  1 instructions:    6000003 cycles:    3054181 heartbeat IPC: 2.02635 cumulative IPC: 1.96452 (Simulation time: 0 hr 0 min 49 sec) 
Heartbeat CPU  2 instructions:   10000000 cycles:    3238349 heartbeat IPC: 1.70120 cumulative IPC: 3.08799 (Simulation time: 0 hr 0 min 51 sec) 
Heartbeat CPU  0 instructions:    7000003 cycles:    3499386 heartbeat IPC: 2.08911 cumulative IPC: 2.00035 (Simulation time: 0 hr 0 min 54 sec) 
Heartbeat CPU  1 instructions:    7000000 cycles:    3502458 heartbeat IPC: 2.23076 cumulative IPC: 1.99860 (Simulation time: 0 hr 0 min 54 sec) 
Heartbeat CPU  3 instructions:   11000002 cycles:    3510190 heartbeat IPC: 1.72978 cumulative IPC: 3.13373 (Simulation time: 0 hr 0 min 54 sec) 
Heartbeat CPU  2 instructions:   11000001 cycles:    3919546 heartbeat IPC: 1.46801 cumulative IPC: 2.80645 (Simulation time: 0 hr 0 min 59 sec) 
Heartbeat CPU  0 instructions:    8000000 cycles:    3963723 heartbeat IPC: 2.15360 cumulative IPC: 2.01830 (Simulation time: 0 hr 1 min 0 sec) 
Heartbeat CPU  1 instructions:    8000000 cycles:    3986914 heartbeat IPC: 2.06417 cumulative IPC: 2.00656 (Simulation time: 0 hr 1 min 0 sec) 
Heartbeat CPU  3 instructions:   12000000 cycles:    4071971 heartbeat IPC: 1.78005 cumulative IPC: 2.94698 (Simulation time: 0 hr 1 min 1 sec) 
Heartbeat CPU  0 instructions:    9000001 cycles:    4435553 heartbeat IPC: 2.11941 cumulative IPC: 2.02906 (Simulation time: 0 hr 1 min 6 sec) 
Heartbeat CPU  1 instructions:    9000000 cycles:    4453815 heartbeat IPC: 2.14178 cumulative IPC: 2.02074 (Simulation time: 0 hr 1 min 6 sec) 
Heartbeat CPU  2 instructions:   12000000 cycles:    4527612 heartbeat IPC: 1.64456 cumulative IPC: 2.65040 (Simulation time: 0 hr 1 min 7 sec) 
Heartbeat CPU  3 instructions:   13000003 cycles:    4614227 heartbeat IPC: 1.84415 cumulative IPC: 2.81737 (Simulation time: 0 hr 1 min 8 sec) 
Heartbeat CPU  0 instructions:   10000001 cycles:    4950735 heartbeat IPC: 1.94106 cumulative IPC: 2.01990 (Simulation time: 0 hr 1 min 12 sec) 
Heartbeat CPU  1 instructions:   10000000 cycles:    4954483 heartbeat IPC: 1.99733 cumulative IPC: 2.01837 (Simulation time: 0 hr 1 min 12 sec) 
Heartbeat CPU  2 instructions:   13000000 cycles:    5101863 heartbeat IPC: 1.74140 cumulative IPC: 2.54809 (Simulation time: 0 hr 1 min 14 sec) 
Heartbeat CPU  3 instructions:   14000002 cycles:    5103256 heartbeat IPC: 2.04487 cumulative IPC: 2.74335 (Simulation time: 0 hr 1 min 14 sec) 
Heartbeat CPU  0 instructions:   11000002 cycles:    5473992 heartbeat IPC: 1.91111 cumulative IPC: 2.00950 (Simulation time: 0 hr 1 min 19 sec) 
Heartbeat CPU  1 instructions:   11000000 cycles:    5501209 heartbeat IPC: 1.82907 cumulative IPC: 1.99956 (Simulation time: 0 hr 1 min 19 sec) 
Heartbeat CPU  3 instructions:   15000000 cycles:    5628782 heartbeat IPC: 1.90285 cumulative IPC: 2.66488 (Simulation time: 0 hr 1 min 21 sec) 
Heartbeat CPU  2 instructions:   14000003 cycles:    5653742 heartbeat IPC: 1.81200 cumulative IPC: 2.47624 (Simulation time: 0 hr 1 min 21 sec) 
Heartbeat CPU  0 instructions:   12000000 cycles:    5956353 heartbeat IPC: 2.07313 cumulative IPC: 2.01466 (Simulation time: 0 hr 1 min 25 sec) 
Heartbeat CPU  1 instructions:   12000000 cycles:    6024405 heartbeat IPC: 1.91133 cumulative IPC: 1.99190 (Simulation time: 0 hr 1 min 25 sec) 
Heartbeat CPU  2 instructions:   15000000 cycles:    6229713 heartbeat IPC: 1.73619 cumulative IPC: 2.40782 (Simulation time: 0 hr 1 min 28 sec) 
Heartbeat CPU  3 instructions:   16000000 cycles:    6250579 heartbeat IPC: 1.60824 cumulative IPC: 2.55976 (Simulation time: 0 hr 1 min 28 sec) 
Heartbeat CPU  0 instructions:   13000000 cycles:    6494430 heartbeat IPC: 1.85847 cumulative IPC: 2.00172 (Simulation time: 0 hr 1 min 31 sec) 
Heartbeat CPU  1 instructions:   13000002 cycles:    6560561 heartbeat IPC: 1.86513 cumulative IPC: 1.98154 (Simulation time: 0 hr 1 min 31 sec) 
Heartbeat CPU  2 instructions:   16000000 cycles:    6837430 heartbeat IPC: 1.64550 cumulative IPC: 2.34006 (Simulation time: 0 hr 1 min 34 sec) 
Heartbeat CPU  3 instructions:   17000000 cycles:    6923957 heartbeat IPC: 1.48505 cumulative IPC: 2.45524 (Simulation time: 0 hr 1 min 35 sec) 
Heartbeat CPU  0 instructions:   14000001 cycles:    7020883 heartbeat IPC: 1.89951 cumulative IPC: 1.99405 (Simulation time: 0 hr 1 min 36 sec) 
Heartbeat CPU  1 instructions:   14000000 cycles:    7085455 heartbeat IPC: 1.90514 cumulative IPC: 1.97588 (Simulation time: 0 hr 1 min 37 sec) 
Heartbeat CPU  2 instructions:   17000000 cycles:    7438107 heartbeat IPC: 1.66479 cumulative IPC: 2.28553 (Simulation time: 0 hr 1 min 41 sec) 
Heartbeat CPU  0 instructions:   15000000 cycles:    7493490 heartbeat IPC: 2.11592 cumulative IPC: 2.00174 (Simulation time: 0 hr 1 min 42 sec) 
Heartbeat CPU  3 instructions:   18000002 cycles:    7496984 heartbeat IPC: 1.74512 cumulative IPC: 2.40097 (Simulation time: 0 hr 1 min 42 sec) 
Heartbeat CPU  1 instructions:   15000002 cycles:    7606098 heartbeat IPC: 1.92071 cumulative IPC: 1.97210 (Simulation time: 0 hr 1 min 43 sec) 
Heartbeat CPU  0 instructions:   16000000 cycles:    8024843 heartbeat IPC: 1.88199 cumulative IPC: 1.99381 (Simulation time: 0 hr 1 min 48 sec) 
Heartbeat CPU  3 instructions:   19000000 cycles:    8034820 heartbeat IPC: 1.85930 cumulative IPC: 2.36471 (Simulation time: 0 hr 1 min 48 sec) 
Heartbeat CPU  2 instructions:   18000000 cycles:    8046505 heartbeat IPC: 1.64366 cumulative IPC: 2.23700 (Simulation time: 0 hr 1 min 49 sec) 
Heartbeat CPU  1 instructions:   16000000 cycles:    8141780 heartbeat IPC: 1.86678 cumulative IPC: 1.96517 (Simulation time: 0 hr 1 min 50 sec) 
Heartbeat CPU  0 instructions:   17000001 cycles:    8559731 heartbeat IPC: 1.86955 cumulative IPC: 1.98604 (Simulation time: 0 hr 1 min 54 sec) 
Heartbeat CPU  3 instructions:   20000000 cycles:    8587526 heartbeat IPC: 1.80928 cumulative IPC: 2.32896 (Simulation time: 0 hr 1 min 55 sec) 
Heartbeat CPU  2 instructions:   19000003 cycles:    8650257 heartbeat IPC: 1.65631 cumulative IPC: 2.19647 (Simulation time: 0 hr 1 min 55 sec) 
Heartbeat CPU  1 instructions:   17000002 cycles:    8746908 heartbeat IPC: 1.65255 cumulative IPC: 1.94354 (Simulation time: 0 hr 1 min 56 sec) 
Heartbeat CPU  0 instructions:   18000000 cycles:    9098571 heartbeat IPC: 1.85584 cumulative IPC: 1.97833 (Simulation time: 0 hr 2 min 0 sec) 
Heartbeat CPU  3 instructions:   21000003 cycles:    9119153 heartbeat IPC: 1.88102 cumulative IPC: 2.30285 (Simulation time: 0 hr 2 min 1 sec) 
Heartbeat CPU  2 instructions:   20000000 cycles:    9254375 heartbeat IPC: 1.65530 cumulative IPC: 2.16114 (Simulation time: 0 hr 2 min 2 sec) 
Heartbeat CPU  1 instructions:   18000001 cycles:    9297076 heartbeat IPC: 1.81762 cumulative IPC: 1.93609 (Simulation time: 0 hr 2 min 3 sec) 
Heartbeat CPU  0 instructions:   19000001 cycles:    9636192 heartbeat IPC: 1.86005 cumulative IPC: 1.97173 (Simulation time: 0 hr 2 min 6 sec) 
Heartbeat CPU  3 instructions:   22000001 cycles:    9676382 heartbeat IPC: 1.79459 cumulative IPC: 2.27358 (Simulation time: 0 hr 2 min 7 sec) 
Heartbeat CPU  1 instructions:   19000001 cycles:    9842077 heartbeat IPC: 1.83486 cumulative IPC: 1.93049 (Simulation time: 0 hr 2 min 9 sec) 
Heartbeat CPU  2 instructions:   21000000 cycles:    9863936 heartbeat IPC: 1.64052 cumulative IPC: 2.12897 (Simulation time: 0 hr 2 min 9 sec) 
Heartbeat CPU  0 instructions:   20000000 cycles:   10202985 heartbeat IPC: 1.76431 cumulative IPC: 1.96021 (Simulation time: 0 hr 2 min 13 sec) 
Heartbeat CPU  3 instructions:   23000000 cycles:   10221902 heartbeat IPC: 1.83311 cumulative IPC: 2.25007 (Simulation time: 0 hr 2 min 13 sec) 
Heartbeat CPU  1 instructions:   20000000 cycles:   10360879 heartbeat IPC: 1.92752 cumulative IPC: 1.93034 (Simulation time: 0 hr 2 min 15 sec) 
Heartbeat CPU  2 instructions:   22000002 cycles:   10474374 heartbeat IPC: 1.63817 cumulative IPC: 2.10036 (Simulation time: 0 hr 2 min 16 sec) 
Heartbeat CPU  0 instructions:   21000002 cycles:   10743737 heartbeat IPC: 1.84928 cumulative IPC: 1.95463 (Simulation time: 0 hr 2 min 19 sec) 
Heartbeat CPU  3 instructions:   24000000 cycles:   10779762 heartbeat IPC: 1.79256 cumulative IPC: 2.22639 (Simulation time: 0 hr 2 min 19 sec) 
Heartbeat CPU  1 instructions:   21000001 cycles:   10901656 heartbeat IPC: 1.84919 cumulative IPC: 1.92631 (Simulation time: 0 hr 2 min 21 sec) 
Heartbeat CPU  2 instructions:   23000000 cycles:   11071421 heartbeat IPC: 1.67491 cumulative IPC: 2.07742 (Simulation time: 0 hr 2 min 23 sec) 
Heartbeat CPU  0 instructions:   22000001 cycles:   11244444 heartbeat IPC: 1.99717 cumulative IPC: 1.95652 (Simulation time: 0 hr 2 min 25 sec) 
Heartbeat CPU  3 instructions:   25000001 cycles:   11336287 heartbeat IPC: 1.79687 cumulative IPC: 2.20531 (Simulation time: 0 hr 2 min 26 sec) 
Heartbeat CPU  1 instructions:   22000000 cycles:   11427519 heartbeat IPC: 1.90163 cumulative IPC: 1.92518 (Simulation time: 0 hr 2 min 27 sec) 
Heartbeat CPU  2 instructions:   24000000 cycles:   11659587 heartbeat IPC: 1.70020 cumulative IPC: 2.05839 (Simulation time: 0 hr 2 min 30 sec) 
Heartbeat CPU  0 instructions:   23000003 cycles:   11798889 heartbeat IPC: 1.80361 cumulative IPC: 1.94934 (Simulation time: 0 hr 2 min 31 sec) 
Heartbeat CPU  3 instructions:   26000000 cycles:   11895183 heartbeat IPC: 1.78924 cumulative IPC: 2.18576 (Simulation time: 0 hr 2 min 32 sec) 
Heartbeat CPU  1 instructions:   23000001 cycles:   11948447 heartbeat IPC: 1.91965 cumulative IPC: 1.92494 (Simulation time: 0 hr 2 min 33 sec) 
Heartbeat CPU  2 instructions:   25000002 cycles:   12264900 heartbeat IPC: 1.65204 cumulative IPC: 2.03834 (Simulation time: 0 hr 2 min 37 sec) 
Heartbeat CPU  0 instructions:   24000000 cycles:   12325101 heartbeat IPC: 1.90037 cumulative IPC: 1.94725 (Simulation time: 0 hr 2 min 37 sec) 
Heartbeat CPU  3 instructions:   27000003 cycles:   12416932 heartbeat IPC: 1.91664 cumulative IPC: 2.17445 (Simulation time: 0 hr 2 min 38 sec) 
Heartbeat CPU  1 instructions:   24000000 cycles:   12495430 heartbeat IPC: 1.82821 cumulative IPC: 1.92070 (Simulation time: 0 hr 2 min 39 sec) 
Heartbeat CPU  2 instructions:   26000002 cycles:   12846542 heartbeat IPC: 1.71927 cumulative IPC: 2.02389 (Simulation time: 0 hr 2 min 44 sec) 
Heartbeat CPU  0 instructions:   25000003 cycles:   12857201 heartbeat IPC: 1.87935 cumulative IPC: 1.94444 (Simulation time: 0 hr 2 min 44 sec) 
Heartbeat CPU  3 instructions:   28000000 cycles:   12937692 heartbeat IPC: 1.92026 cumulative IPC: 2.16422 (Simulation time: 0 hr 2 min 45 sec) 
Heartbeat CPU  1 instructions:   25000001 cycles:   13058162 heartbeat IPC: 1.77705 cumulative IPC: 1.91451 (Simulation time: 0 hr 2 min 46 sec) 
Heartbeat CPU  0 instructions:   26000002 cycles:   13379858 heartbeat IPC: 1.91330 cumulative IPC: 1.94322 (Simulation time: 0 hr 2 min 50 sec) 
Heartbeat CPU  2 instructions:   27000000 cycles:   13411953 heartbeat IPC: 1.76862 cumulative IPC: 2.01313 (Simulation time: 0 hr 2 min 51 sec) 
Heartbeat CPU  3 instructions:   29000000 cycles:   13443218 heartbeat IPC: 1.97814 cumulative IPC: 2.15722 (Simulation time: 0 hr 2 min 51 sec) 
Heartbeat CPU  1 instructions:   26000000 cycles:   13572869 heartbeat IPC: 1.94285 cumulative IPC: 1.91559 (Simulation time: 0 hr 2 min 52 sec) 
Heartbeat CPU  0 instructions:   27000001 cycles:   13933970 heartbeat IPC: 1.80469 cumulative IPC: 1.93771 (Simulation time: 0 hr 2 min 57 sec) 
Heartbeat CPU  3 instructions:   30000003 cycles:   13974770 heartbeat IPC: 1.88129 cumulative IPC: 2.14673 (Simulation time: 0 hr 2 min 57 sec) 
Heartbeat CPU  2 instructions:   28000000 cycles:   13991691 heartbeat IPC: 1.72492 cumulative IPC: 2.00119 (Simulation time: 0 hr 2 min 57 sec) 
Heartbeat CPU  1 instructions:   27000000 cycles:   14120034 heartbeat IPC: 1.82760 cumulative IPC: 1.91218 (Simulation time: 0 hr 2 min 59 sec) 
Heartbeat CPU  0 instructions:   28000000 cycles:   14437126 heartbeat IPC: 1.98745 cumulative IPC: 1.93944 (Simulation time: 0 hr 3 min 3 sec) 
Heartbeat CPU  3 instructions:   31000002 cycles:   14505333 heartbeat IPC: 1.88479 cumulative IPC: 2.13715 (Simulation time: 0 hr 3 min 4 sec) 
Heartbeat CPU  2 instructions:   29000001 cycles:   14591746 heartbeat IPC: 1.66652 cumulative IPC: 1.98742 (Simulation time: 0 hr 3 min 5 sec) 
Heartbeat CPU  1 instructions:   28000000 cycles:   14644159 heartbeat IPC: 1.90794 cumulative IPC: 1.91203 (Simulation time: 0 hr 3 min 5 sec) 
Heartbeat CPU  0 instructions:   29000003 cycles:   14960819 heartbeat IPC: 1.90952 cumulative IPC: 1.93840 (Simulation time: 0 hr 3 min 9 sec) 
Heartbeat CPU  3 instructions:   32000000 cycles:   15022380 heartbeat IPC: 1.93406 cumulative IPC: 2.13016 (Simulation time: 0 hr 3 min 10 sec) 
Heartbeat CPU  1 instructions:   29000000 cycles:   15162532 heartbeat IPC: 1.92911 cumulative IPC: 1.91261 (Simulation time: 0 hr 3 min 12 sec) 
Heartbeat CPU  2 instructions:   30000003 cycles:   15172004 heartbeat IPC: 1.72337 cumulative IPC: 1.97733 (Simulation time: 0 hr 3 min 12 sec) 
Heartbeat CPU  0 instructions:   30000002 cycles:   15509608 heartbeat IPC: 1.82219 cumulative IPC: 1.93429 (Simulation time: 0 hr 3 min 16 sec) 
Heartbeat CPU  3 instructions:   33000002 cycles:   15551282 heartbeat IPC: 1.89071 cumulative IPC: 2.12201 (Simulation time: 0 hr 3 min 16 sec) 
Heartbeat CPU  1 instructions:   30000002 cycles:   15708061 heartbeat IPC: 1.83309 cumulative IPC: 1.90985 (Simulation time: 0 hr 3 min 18 sec) 
Heartbeat CPU  2 instructions:   31000003 cycles:   15755846 heartbeat IPC: 1.71279 cumulative IPC: 1.96752 (Simulation time: 0 hr 3 min 19 sec) 
Heartbeat CPU  0 instructions:   31000000 cycles:   16013756 heartbeat IPC: 1.98354 cumulative IPC: 1.93584 (Simulation time: 0 hr 3 min 22 sec) 
Heartbeat CPU  3 instructions:   34000003 cycles:   16099897 heartbeat IPC: 1.82277 cumulative IPC: 2.11181 (Simulation time: 0 hr 3 min 23 sec) 
Heartbeat CPU  1 instructions:   31000001 cycles:   16225917 heartbeat IPC: 1.93104 cumulative IPC: 1.91052 (Simulation time: 0 hr 3 min 24 sec) 
Heartbeat CPU  2 instructions:   32000000 cycles:   16314770 heartbeat IPC: 1.78915 cumulative IPC: 1.96141 (Simulation time: 0 hr 3 min 25 sec) 
Heartbeat CPU  0 instructions:   32000000 cycles:   16536293 heartbeat IPC: 1.91374 cumulative IPC: 1.93514 (Simulation time: 0 hr 3 min 28 sec) 
Heartbeat CPU  3 instructions:   35000000 cycles:   16625314 heartbeat IPC: 1.90324 cumulative IPC: 2.10522 (Simulation time: 0 hr 3 min 29 sec) 
Heartbeat CPU  1 instructions:   32000000 cycles:   16751324 heartbeat IPC: 1.90328 cumulative IPC: 1.91030 (Simulation time: 0 hr 3 min 31 sec) 
Heartbeat CPU  2 instructions:   33000000 cycles:   16894588 heartbeat IPC: 1.72468 cumulative IPC: 1.95329 (Simulation time: 0 hr 3 min 33 sec) 
Heartbeat CPU  0 instructions:   33000003 cycles:   17075453 heartbeat IPC: 1.85474 cumulative IPC: 1.93260 (Simulation time: 0 hr 3 min 35 sec) 
Heartbeat CPU  3 instructions:   36000000 cycles:   17192696 heartbeat IPC: 1.76248 cumulative IPC: 2.09391 (Simulation time: 0 hr 3 min 36 sec) 
Heartbeat CPU  1 instructions:   33000001 cycles:   17271786 heartbeat IPC: 1.92137 cumulative IPC: 1.91063 (Simulation time: 0 hr 3 min 37 sec) 
Heartbeat CPU  2 instructions:   34000001 cycles:   17460889 heartbeat IPC: 1.76585 cumulative IPC: 1.94721 (Simulation time: 0 hr 3 min 39 sec) 
Heartbeat CPU  0 instructions:   34000002 cycles:   17607508 heartbeat IPC: 1.87950 cumulative IPC: 1.93099 (Simulation time: 0 hr 3 min 41 sec) 
Heartbeat CPU  1 instructions:   34000002 cycles:   17797832 heartbeat IPC: 1.90098 cumulative IPC: 1.91035 (Simulation time: 0 hr 3 min 43 sec) 
Heartbeat CPU  3 instructions:   37000001 cycles:   17840085 heartbeat IPC: 1.54467 cumulative IPC: 2.07398 (Simulation time: 0 hr 3 min 43 sec) 
Heartbeat CPU  2 instructions:   35000003 cycles:   18013738 heartbeat IPC: 1.80882 cumulative IPC: 1.94296 (Simulation time: 0 hr 3 min 45 sec) 
Heartbeat CPU  0 instructions:   35000001 cycles:   18166524 heartbeat IPC: 1.78886 cumulative IPC: 1.92662 (Simulation time: 0 hr 3 min 47 sec) 
Heartbeat CPU  1 instructions:   35000000 cycles:   18390670 heartbeat IPC: 1.68680 cumulative IPC: 1.90314 (Simulation time: 0 hr 3 min 49 sec) 
Heartbeat CPU  3 instructions:   38000001 cycles:   18406091 heartbeat IPC: 1.76677 cumulative IPC: 2.06453 (Simulation time: 0 hr 3 min 49 sec) 
Heartbeat CPU  2 instructions:   36000000 cycles:   18578687 heartbeat IPC: 1.77007 cumulative IPC: 1.93770 (Simulation time: 0 hr 3 min 51 sec) 
Heartbeat CPU  0 instructions:   36000000 cycles:   18862996 heartbeat IPC: 1.43581 cumulative IPC: 1.90850 (Simulation time: 0 hr 3 min 54 sec) 
Heartbeat CPU  1 instructions:   36000000 cycles:   18943072 heartbeat IPC: 1.81028 cumulative IPC: 1.90043 (Simulation time: 0 hr 3 min 55 sec) 
Heartbeat CPU  3 instructions:   39000003 cycles:   19090693 heartbeat IPC: 1.46071 cumulative IPC: 2.04288 (Simulation time: 0 hr 3 min 56 sec) 
Heartbeat CPU  2 instructions:   37000003 cycles:   19163216 heartbeat IPC: 1.71078 cumulative IPC: 1.93078 (Simulation time: 0 hr 3 min 57 sec) 
Heartbeat CPU  0 instructions:   37000001 cycles:   19411057 heartbeat IPC: 1.82462 cumulative IPC: 1.90613 (Simulation time: 0 hr 4 min 0 sec) 
Heartbeat CPU  1 instructions:   37000000 cycles:   19455062 heartbeat IPC: 1.95316 cumulative IPC: 1.90182 (Simulation time: 0 hr 4 min 1 sec) 
Heartbeat CPU  3 instructions:   40000000 cycles:   19634791 heartbeat IPC: 1.83790 cumulative IPC: 2.03720 (Simulation time: 0 hr 4 min 3 sec) 
Heartbeat CPU  2 instructions:   38000001 cycles:   19821719 heartbeat IPC: 1.51859 cumulative IPC: 1.91709 (Simulation time: 0 hr 4 min 5 sec) 
Heartbeat CPU  0 instructions:   38000001 cycles:   19975111 heartbeat IPC: 1.77288 cumulative IPC: 1.90237 (Simulation time: 0 hr 4 min 7 sec) 
Heartbeat CPU  1 instructions:   38000001 cycles:   20037665 heartbeat IPC: 1.71644 cumulative IPC: 1.89643 (Simulation time: 0 hr 4 min 7 sec) 
Heartbeat CPU  3 instructions:   41000001 cycles:   20175496 heartbeat IPC: 1.84944 cumulative IPC: 2.03217 (Simulation time: 0 hr 4 min 9 sec) 
Heartbeat CPU  2 instructions:   39000000 cycles:   20409089 heartbeat IPC: 1.70250 cumulative IPC: 1.91091 (Simulation time: 0 hr 4 min 12 sec) 
Heartbeat CPU  0 instructions:   39000001 cycles:   20501007 heartbeat IPC: 1.90152 cumulative IPC: 1.90235 (Simulation time: 0 hr 4 min 13 sec) 
Heartbeat CPU  1 instructions:   39000003 cycles:   20582625 heartbeat IPC: 1.83500 cumulative IPC: 1.89480 (Simulation time: 0 hr 4 min 14 sec) 
Heartbeat CPU  3 instructions:   42000003 cycles:   20686393 heartbeat IPC: 1.95735 cumulative IPC: 2.03032 (Simulation time: 0 hr 4 min 15 sec) 
Heartbeat CPU  2 instructions:   40000000 cycles:   20950264 heartbeat IPC: 1.84783 cumulative IPC: 1.90928 (Simulation time: 0 hr 4 min 18 sec) 
Heartbeat CPU  0 instructions:   40000000 cycles:   21063559 heartbeat IPC: 1.77761 cumulative IPC: 1.89901 (Simulation time: 0 hr 4 min 20 sec) 
Heartbeat CPU  1 instructions:   40000000 cycles:   21092941 heartbeat IPC: 1.95956 cumulative IPC: 1.89637 (Simulation time: 0 hr 4 min 20 sec) 
Heartbeat CPU  3 instructions:   43000000 cycles:   21211451 heartbeat IPC: 1.90455 cumulative IPC: 2.02721 (Simulation time: 0 hr 4 min 21 sec) 
Heartbeat CPU  2 instructions:   41000002 cycles:   21501775 heartbeat IPC: 1.81320 cumulative IPC: 1.90682 (Simulation time: 0 hr 4 min 25 sec) 
Heartbeat CPU  0 instructions:   41000002 cycles:   21567811 heartbeat IPC: 1.98314 cumulative IPC: 1.90098 (Simulation time: 0 hr 4 min 26 sec) 
Heartbeat CPU  1 instructions:   41000002 cycles:   21603927 heartbeat IPC: 1.95700 cumulative IPC: 1.89780 (Simulation time: 0 hr 4 min 26 sec) 
Heartbeat CPU  3 instructions:   44000000 cycles:   21719805 heartbeat IPC: 1.96713 cumulative IPC: 2.02580 (Simulation time: 0 hr 4 min 28 sec) 
Heartbeat CPU  2 instructions:   42000000 cycles:   22068575 heartbeat IPC: 1.76429 cumulative IPC: 1.90316 (Simulation time: 0 hr 4 min 32 sec) 
Heartbeat CPU  0 instructions:   42000000 cycles:   22087391 heartbeat IPC: 1.92463 cumulative IPC: 1.90154 (Simulation time: 0 hr 4 min 32 sec) 
Heartbeat CPU  1 instructions:   42000000 cycles:   22145418 heartbeat IPC: 1.84675 cumulative IPC: 1.89655 (Simulation time: 0 hr 4 min 33 sec) 
Heartbeat CPU  3 instructions:   45000000 cycles:   22288408 heartbeat IPC: 1.75870 cumulative IPC: 2.01899 (Simulation time: 0 hr 4 min 35 sec) 
Heartbeat CPU  0 instructions:   43000001 cycles:   22603827 heartbeat IPC: 1.93635 cumulative IPC: 1.90233 (Simulation time: 0 hr 4 min 39 sec) 
Heartbeat CPU  2 instructions:   43000000 cycles:   22660326 heartbeat IPC: 1.68990 cumulative IPC: 1.89759 (Simulation time: 0 hr 4 min 39 sec) 
Heartbeat CPU  1 instructions:   43000000 cycles:   22668698 heartbeat IPC: 1.91102 cumulative IPC: 1.89689 (Simulation time: 0 hr 4 min 39 sec) 
Heartbeat CPU  3 instructions:   46000003 cycles:   22830602 heartbeat IPC: 1.84436 cumulative IPC: 2.01484 (Simulation time: 0 hr 4 min 41 sec) 
Heartbeat CPU  0 instructions:   44000000 cycles:   23128799 heartbeat IPC: 1.90486 cumulative IPC: 1.90239 (Simulation time: 0 hr 4 min 45 sec) 
Heartbeat CPU  1 instructions:   44000000 cycles:   23186495 heartbeat IPC: 1.93126 cumulative IPC: 1.89766 (Simulation time: 0 hr 4 min 46 sec) 
Heartbeat CPU  2 instructions:   44000000 cycles:   23223378 heartbeat IPC: 1.77603 cumulative IPC: 1.89464 (Simulation time: 0 hr 4 min 46 sec) 
Heartbeat CPU  3 instructions:   47000002 cycles:   23364400 heartbeat IPC: 1.87337 cumulative IPC: 2.01161 (Simulation time: 0 hr 4 min 48 sec) 
Heartbeat CPU  0 instructions:   45000002 cycles:   23655474 heartbeat IPC: 1.89871 cumulative IPC: 1.90231 (Simulation time: 0 hr 4 min 51 sec) 
Heartbeat CPU  1 instructions:   45000000 cycles:   23710176 heartbeat IPC: 1.90956 cumulative IPC: 1.89792 (Simulation time: 0 hr 4 min 52 sec) 
Heartbeat CPU  2 instructions:   45000000 cycles:   23794722 heartbeat IPC: 1.75026 cumulative IPC: 1.89118 (Simulation time: 0 hr 4 min 53 sec) 
Heartbeat CPU  3 instructions:   48000000 cycles:   23877840 heartbeat IPC: 1.94764 cumulative IPC: 2.01023 (Simulation time: 0 hr 4 min 54 sec) 
Heartbeat CPU  0 instructions:   46000001 cycles:   24180478 heartbeat IPC: 1.90475 cumulative IPC: 1.90236 (Simulation time: 0 hr 4 min 58 sec) 
Heartbeat CPU  1 instructions:   46000000 cycles:   24251466 heartbeat IPC: 1.84744 cumulative IPC: 1.89679 (Simulation time: 0 hr 4 min 59 sec) 
Heartbeat CPU  2 instructions:   46000003 cycles:   24376195 heartbeat IPC: 1.71978 cumulative IPC: 1.88709 (Simulation time: 0 hr 5 min 0 sec) 
Heartbeat CPU  3 instructions:   49000000 cycles:   24419859 heartbeat IPC: 1.84495 cumulative IPC: 2.00656 (Simulation time: 0 hr 5 min 1 sec) 
Heartbeat CPU  0 instructions:   47000001 cycles:   24687196 heartbeat IPC: 1.97348 cumulative IPC: 1.90382 (Simulation time: 0 hr 5 min 4 sec) 
Heartbeat CPU  1 instructions:   47000000 cycles:   24761944 heartbeat IPC: 1.95895 cumulative IPC: 1.89807 (Simulation time: 0 hr 5 min 5 sec) 
Heartbeat CPU  3 instructions:   50000001 cycles:   24924418 heartbeat IPC: 1.98193 cumulative IPC: 2.00606 (Simulation time: 0 hr 5 min 7 sec) 
Heartbeat CPU  2 instructions:   47000000 cycles:   24947426 heartbeat IPC: 1.75060 cumulative IPC: 1.88396 (Simulation time: 0 hr 5 min 7 sec) 
Heartbeat CPU  0 instructions:   48000000 cycles:   25213237 heartbeat IPC: 1.90099 cumulative IPC: 1.90376 (Simulation time: 0 hr 5 min 10 sec) 
Heartbeat CPU  1 instructions:   48000000 cycles:   25291114 heartbeat IPC: 1.88975 cumulative IPC: 1.89790 (Simulation time: 0 hr 5 min 11 sec) 
Heartbeat CPU  3 instructions:   51000003 cycles:   25437968 heartbeat IPC: 1.94723 cumulative IPC: 0.03931 (Simulation time: 0 hr 5 min 13 sec) 
Heartbeat CPU  2 instructions:   48000000 cycles:   25522525 heartbeat IPC: 1.73883 cumulative IPC: 1.88069 (Simulation time: 0 hr 5 min 14 sec) 
Heartbeat CPU  0 instructions:   49000002 cycles:   25729164 heartbeat IPC: 1.93826 cumulative IPC: 1.90445 (Simulation time: 0 hr 5 min 17 sec) 
Heartbeat CPU  1 instructions:   49000000 cycles:   25811143 heartbeat IPC: 1.92297 cumulative IPC: 1.89840 (Simulation time: 0 hr 5 min 18 sec) 
Heartbeat CPU  3 instructions:   52000000 cycles:   25919755 heartbeat IPC: 2.07560 cumulative IPC: 0.07716 (Simulation time: 0 hr 5 min 19 sec) 
Heartbeat CPU  2 instructions:   49000000 cycles:   26096420 heartbeat IPC: 1.74248 cumulative IPC: 1.87765 (Simulation time: 0 hr 5 min 22 sec) 
Heartbeat CPU  0 instructions:   50000001 cycles:   26260291 heartbeat IPC: 1.88279 cumulative IPC: 1.90402 (Simulation time: 0 hr 5 min 24 sec) 
Heartbeat CPU  1 instructions:   50000000 cycles:   26308783 heartbeat IPC: 2.00948 cumulative IPC: 1.90051 (Simulation time: 0 hr 5 min 24 sec) 
Heartbeat CPU  3 instructions:   53000003 cycles:   26414138 heartbeat IPC: 2.02273 cumulative IPC: 0.11358 (Simulation time: 0 hr 5 min 26 sec) 
Heartbeat CPU  2 instructions:   50000003 cycles:   26640695 heartbeat IPC: 1.83731 cumulative IPC: 1.87683 (Simulation time: 0 hr 5 min 28 sec) 

Warmup complete CPU  0 instructions:   50723400 cycles:   26640695 (Simulation time: 0 hr 5 min 28 sec) 
Warmup complete CPU  1 instructions:   50612675 cycles:   26640695 (Simulation time: 0 hr 5 min 28 sec) 
Warmup complete CPU  2 instructions:   50000003 cycles:   26640695 (Simulation time: 0 hr 5 min 28 sec) 
Warmup complete CPU  3 instructions:   53433161 cycles:   26640695 (Simulation time: 0 hr 5 min 28 sec) 

Heartbeat CPU  0 instructions:   51000002 cycles:   27939027 heartbeat IPC: 0.59569 cumulative IPC: 0.21304 (Simulation time: 0 hr 5 min 31 sec) 
Heartbeat CPU  1 instructions:   51000001 cycles:   28468036 heartbeat IPC: 0.46312 cumulative IPC: 0.21196 (Simulation time: 0 hr 5 min 32 sec) 
Heartbeat CPU  3 instructions:   54000000 cycles:   29344850 heartbeat IPC: 0.34121 cumulative IPC: 0.20962 (Simulation time: 0 hr 5 min 33 sec) 
Heartbeat CPU  2 instructions:   51000002 cycles:   32344200 heartbeat IPC: 0.17533 cumulative IPC: 0.17533 (Simulation time: 0 hr 5 min 39 sec) 
Heartbeat CPU  0 instructions:   52000000 cycles:   32872246 heartbeat IPC: 0.20271 cumulative IPC: 0.20486 (Simulation time: 0 hr 5 min 40 sec) 
Heartbeat CPU  1 instructions:   52000000 cycles:   33284389 heartbeat IPC: 0.20763 cumulative IPC: 0.20882 (Simulation time: 0 hr 5 min 41 sec) 
Heartbeat CPU  3 instructions:   55000000 cycles:   34152158 heartbeat IPC: 0.20802 cumulative IPC: 0.20859 (Simulation time: 0 hr 5 min 42 sec) 
Heartbeat CPU  0 instructions:   53000003 cycles:   37613532 heartbeat IPC: 0.21091 cumulative IPC: 0.20748 (Simulation time: 0 hr 5 min 49 sec) 
Heartbeat CPU  2 instructions:   52000000 cycles:   38152204 heartbeat IPC: 0.17218 cumulative IPC: 0.17374 (Simulation time: 0 hr 5 min 50 sec) 
Heartbeat CPU  1 instructions:   53000002 cycles:   38155658 heartbeat IPC: 0.20529 cumulative IPC: 0.20732 (Simulation time: 0 hr 5 min 50 sec) 
Heartbeat CPU  3 instructions:   56000000 cycles:   38865537 heartbeat IPC: 0.21216 cumulative IPC: 0.20997 (Simulation time: 0 hr 5 min 51 sec) 
Heartbeat CPU  0 instructions:   54000002 cycles:   42411940 heartbeat IPC: 0.20840 cumulative IPC: 0.20776 (Simulation time: 0 hr 5 min 58 sec) 
Heartbeat CPU  1 instructions:   54000002 cycles:   42932871 heartbeat IPC: 0.20933 cumulative IPC: 0.20791 (Simulation time: 0 hr 5 min 59 sec) 
Heartbeat CPU  3 instructions:   57000000 cycles:   43609383 heartbeat IPC: 0.21080 cumulative IPC: 0.21020 (Simulation time: 0 hr 6 min 0 sec) 
Heartbeat CPU  2 instructions:   53000002 cycles:   43790933 heartbeat IPC: 0.17735 cumulative IPC: 0.17492 (Simulation time: 0 hr 6 min 0 sec) 
Heartbeat CPU  0 instructions:   55000000 cycles:   47239991 heartbeat IPC: 0.20712 cumulative IPC: 0.20761 (Simulation time: 0 hr 6 min 6 sec) 
Heartbeat CPU  1 instructions:   55000000 cycles:   47657047 heartbeat IPC: 0.21168 cumulative IPC: 0.20876 (Simulation time: 0 hr 6 min 7 sec) 
Heartbeat CPU  3 instructions:   58000003 cycles:   48369153 heartbeat IPC: 0.21009 cumulative IPC: 0.21018 (Simulation time: 0 hr 6 min 8 sec) 
Heartbeat CPU  2 instructions:   54000000 cycles:   49601609 heartbeat IPC: 0.17210 cumulative IPC: 0.17421 (Simulation time: 0 hr 6 min 11 sec) 
Heartbeat CPU  0 instructions:   56000000 cycles:   51992670 heartbeat IPC: 0.21041 cumulative IPC: 0.20813 (Simulation time: 0 hr 6 min 15 sec) 
Heartbeat CPU  1 instructions:   56000000 cycles:   52427065 heartbeat IPC: 0.20964 cumulative IPC: 0.20892 (Simulation time: 0 hr 6 min 16 sec) 
Heartbeat CPU  3 instructions:   59000002 cycles:   53082734 heartbeat IPC: 0.21215 cumulative IPC: 0.21053 (Simulation time: 0 hr 6 min 17 sec) 
Heartbeat CPU  2 instructions:   55000001 cycles:   55376059 heartbeat IPC: 0.17318 cumulative IPC: 0.17400 (Simulation time: 0 hr 6 min 21 sec) 
Heartbeat CPU  0 instructions:   57000002 cycles:   56669276 heartbeat IPC: 0.21383 cumulative IPC: 0.20902 (Simulation time: 0 hr 6 min 24 sec) 
Heartbeat CPU  1 instructions:   57000003 cycles:   57168568 heartbeat IPC: 0.21090 cumulative IPC: 0.20923 (Simulation time: 0 hr 6 min 25 sec) 
Heartbeat CPU  3 instructions:   60000000 cycles:   58023750 heartbeat IPC: 0.20239 cumulative IPC: 0.20925 (Simulation time: 0 hr 6 min 26 sec) 
Heartbeat CPU  2 instructions:   56000000 cycles:   60984868 heartbeat IPC: 0.17829 cumulative IPC: 0.17470 (Simulation time: 0 hr 6 min 32 sec) 
Heartbeat CPU  0 instructions:   58000000 cycles:   61405583 heartbeat IPC: 0.21113 cumulative IPC: 0.20931 (Simulation time: 0 hr 6 min 32 sec) 
Heartbeat CPU  1 instructions:   58000002 cycles:   61926021 heartbeat IPC: 0.21020 cumulative IPC: 0.20936 (Simulation time: 0 hr 6 min 33 sec) 
Heartbeat CPU  3 instructions:   61000001 cycles:   62951836 heartbeat IPC: 0.20292 cumulative IPC: 0.20839 (Simulation time: 0 hr 6 min 35 sec) 
Heartbeat CPU  0 instructions:   59000001 cycles:   65842731 heartbeat IPC: 0.22537 cumulative IPC: 0.21113 (Simulation time: 0 hr 6 min 41 sec) 
Heartbeat CPU  1 instructions:   59000002 cycles:   66664196 heartbeat IPC: 0.21105 cumulative IPC: 0.20956 (Simulation time: 0 hr 6 min 42 sec) 
Heartbeat CPU  2 instructions:   57000003 cycles:   66736798 heartbeat IPC: 0.17386 cumulative IPC: 0.17458 (Simulation time: 0 hr 6 min 43 sec) 
Heartbeat CPU  3 instructions:   62000001 cycles:   67802545 heartbeat IPC: 0.20616 cumulative IPC: 0.20813 (Simulation time: 0 hr 6 min 45 sec) 
Heartbeat CPU  0 instructions:   60000000 cycles:   69772461 heartbeat IPC: 0.25447 cumulative IPC: 0.21508 (Simulation time: 0 hr 6 min 49 sec) 
Heartbeat CPU  1 instructions:   60000000 cycles:   71730029 heartbeat IPC: 0.19740 cumulative IPC: 0.20819 (Simulation time: 0 hr 6 min 52 sec) 
Heartbeat CPU  2 instructions:   58000003 cycles:   72406041 heartbeat IPC: 0.17639 cumulative IPC: 0.17480 (Simulation time: 0 hr 6 min 53 sec) 
Heartbeat CPU  3 instructions:   63000000 cycles:   72617213 heartbeat IPC: 0.20770 cumulative IPC: 0.20808 (Simulation time: 0 hr 6 min 54 sec) 
Heartbeat CPU  0 instructions:   61000000 cycles:   74584307 heartbeat IPC: 0.20782 cumulative IPC: 0.21435 (Simulation time: 0 hr 6 min 57 sec) 
Heartbeat CPU  1 instructions:   61000001 cycles:   76808229 heartbeat IPC: 0.19692 cumulative IPC: 0.20705 (Simulation time: 0 hr 7 min 1 sec) 
Heartbeat CPU  3 instructions:   64000000 cycles:   77348859 heartbeat IPC: 0.21134 cumulative IPC: 0.20839 (Simulation time: 0 hr 7 min 2 sec) 
Heartbeat CPU  2 instructions:   59000001 cycles:   78033199 heartbeat IPC: 0.17771 cumulative IPC: 0.17512 (Simulation time: 0 hr 7 min 4 sec) 
Heartbeat CPU  0 instructions:   62000000 cycles:   79262348 heartbeat IPC: 0.21376 cumulative IPC: 0.21430 (Simulation time: 0 hr 7 min 6 sec) 
Heartbeat CPU  1 instructions:   62000003 cycles:   81574383 heartbeat IPC: 0.20981 cumulative IPC: 0.20729 (Simulation time: 0 hr 7 min 10 sec) 
Heartbeat CPU  3 instructions:   65000000 cycles:   82179560 heartbeat IPC: 0.20701 cumulative IPC: 0.20827 (Simulation time: 0 hr 7 min 11 sec) 
Heartbeat CPU  2 instructions:   60000000 cycles:   83646517 heartbeat IPC: 0.17815 cumulative IPC: 0.17542 (Simulation time: 0 hr 7 min 14 sec) 
Heartbeat CPU  0 instructions:   63000003 cycles:   84081919 heartbeat IPC: 0.20749 cumulative IPC: 0.21372 (Simulation time: 0 hr 7 min 15 sec) 
Heartbeat CPU  1 instructions:   63000001 cycles:   86484712 heartbeat IPC: 0.20365 cumulative IPC: 0.20699 (Simulation time: 0 hr 7 min 19 sec) 
Heartbeat CPU  3 instructions:   66000000 cycles:   86998295 heartbeat IPC: 0.20752 cumulative IPC: 0.20821 (Simulation time: 0 hr 7 min 20 sec) 
Heartbeat CPU  0 instructions:   64000000 cycles:   88833580 heartbeat IPC: 0.21045 cumulative IPC: 0.21347 (Simulation time: 0 hr 7 min 24 sec) 
Heartbeat CPU  2 instructions:   61000000 cycles:   89326719 heartbeat IPC: 0.17605 cumulative IPC: 0.17548 (Simulation time: 0 hr 7 min 25 sec) 
Heartbeat CPU  1 instructions:   64000000 cycles:   91243205 heartbeat IPC: 0.21015 cumulative IPC: 0.20723 (Simulation time: 0 hr 7 min 28 sec) 
Heartbeat CPU  3 instructions:   67000003 cycles:   91804726 heartbeat IPC: 0.20806 cumulative IPC: 0.20820 (Simulation time: 0 hr 7 min 29 sec) 
Heartbeat CPU  0 instructions:   65000003 cycles:   93464884 heartbeat IPC: 0.21592 cumulative IPC: 0.21364 (Simulation time: 0 hr 7 min 33 sec) 
Heartbeat CPU  1 instructions:   65000000 cycles:   93821825 heartbeat IPC: 0.38780 cumulative IPC: 0.21416 (Simulation time: 0 hr 7 min 34 sec) 
Heartbeat CPU  2 instructions:   62000003 cycles:   95090208 heartbeat IPC: 0.17351 cumulative IPC: 0.17531 (Simulation time: 0 hr 7 min 37 sec) 
Heartbeat CPU  1 instructions:   66000002 cycles:   95688815 heartbeat IPC: 0.53562 cumulative IPC: 0.22285 (Simulation time: 0 hr 7 min 38 sec) 
Heartbeat CPU  3 instructions:   68000000 cycles:   96545726 heartbeat IPC: 0.21093 cumulative IPC: 0.20838 (Simulation time: 0 hr 7 min 40 sec) 
Heartbeat CPU  1 instructions:   67000001 cycles:   97444426 heartbeat IPC: 0.56960 cumulative IPC: 0.23145 (Simulation time: 0 hr 7 min 42 sec) 
Heartbeat CPU  0 instructions:   66000001 cycles:   98049328 heartbeat IPC: 0.21813 cumulative IPC: 0.21393 (Simulation time: 0 hr 7 min 44 sec) 
Heartbeat CPU  1 instructions:   68000000 cycles:   98865647 heartbeat IPC: 0.70362 cumulative IPC: 0.24074 (Simulation time: 0 hr 7 min 46 sec) 
Heartbeat CPU  1 instructions:   69000002 cycles:  100248205 heartbeat IPC: 0.72330 cumulative IPC: 0.24980 (Simulation time: 0 hr 7 min 50 sec) 
Heartbeat CPU  2 instructions:   63000003 cycles:  100976030 heartbeat IPC: 0.16990 cumulative IPC: 0.17488 (Simulation time: 0 hr 7 min 52 sec) 
Heartbeat CPU  3 instructions:   69000003 cycles:  101227004 heartbeat IPC: 0.21362 cumulative IPC: 0.20871 (Simulation time: 0 hr 7 min 52 sec) 
Heartbeat CPU  1 instructions:   70000000 cycles:  101655946 heartbeat IPC: 0.71036 cumulative IPC: 0.25845 (Simulation time: 0 hr 7 min 54 sec) 
Heartbeat CPU  0 instructions:   67000000 cycles:  102718270 heartbeat IPC: 0.21418 cumulative IPC: 0.21395 (Simulation time: 0 hr 7 min 56 sec) 
Heartbeat CPU  1 instructions:   71000002 cycles:  103083236 heartbeat IPC: 0.70063 cumulative IPC: 0.26670 (Simulation time: 0 hr 7 min 57 sec) 
Heartbeat CPU  1 instructions:   72000000 cycles:  104555980 heartbeat IPC: 0.67900 cumulative IPC: 0.27449 (Simulation time: 0 hr 8 min 2 sec) 
Heartbeat CPU  2 instructions:   64000000 cycles:  104842252 heartbeat IPC: 0.25865 cumulative IPC: 0.17902 (Simulation time: 0 hr 8 min 3 sec) 
Heartbeat CPU  3 instructions:   70000003 cycles:  105928072 heartbeat IPC: 0.21272 cumulative IPC: 0.20895 (Simulation time: 0 hr 8 min 6 sec) 
Heartbeat CPU  1 instructions:   73000003 cycles:  106049256 heartbeat IPC: 0.66967 cumulative IPC: 0.28193 (Simulation time: 0 hr 8 min 6 sec) 
Heartbeat CPU  2 instructions:   65000000 cycles:  107381093 heartbeat IPC: 0.39388 cumulative IPC: 0.18578 (Simulation time: 0 hr 8 min 10 sec) 
Heartbeat CPU  0 instructions:   68000000 cycles:  107398621 heartbeat IPC: 0.21366 cumulative IPC: 0.21393 (Simulation time: 0 hr 8 min 10 sec) 
Heartbeat CPU  1 instructions:   74000000 cycles:  107543131 heartbeat IPC: 0.66940 cumulative IPC: 0.28908 (Simulation time: 0 hr 8 min 11 sec) 
Heartbeat CPU  1 instructions:   75000003 cycles:  109010695 heartbeat IPC: 0.68140 cumulative IPC: 0.29607 (Simulation time: 0 hr 8 min 15 sec) 
Heartbeat CPU  2 instructions:   66000002 cycles:  109711972 heartbeat IPC: 0.42902 cumulative IPC: 0.19261 (Simulation time: 0 hr 8 min 17 sec) 
Heartbeat CPU  1 instructions:   76000000 cycles:  110380161 heartbeat IPC: 0.73021 cumulative IPC: 0.30317 (Simulation time: 0 hr 8 min 19 sec) 
Heartbeat CPU  3 instructions:   71000002 cycles:  110630856 heartbeat IPC: 0.21264 cumulative IPC: 0.20915 (Simulation time: 0 hr 8 min 20 sec) 
Heartbeat CPU  1 instructions:   77000003 cycles:  111769453 heartbeat IPC: 0.71979 cumulative IPC: 0.30997 (Simulation time: 0 hr 8 min 24 sec) 
Heartbeat CPU  2 instructions:   67000000 cycles:  111958259 heartbeat IPC: 0.44518 cumulative IPC: 0.19926 (Simulation time: 0 hr 8 min 24 sec) 
Heartbeat CPU  0 instructions:   69000003 cycles:  112025961 heartbeat IPC: 0.21611 cumulative IPC: 0.21405 (Simulation time: 0 hr 8 min 24 sec) 
Heartbeat CPU  1 instructions:   78000003 cycles:  113340577 heartbeat IPC: 0.63649 cumulative IPC: 0.31589 (Simulation time: 0 hr 8 min 28 sec) 
Heartbeat CPU  2 instructions:   68000000 cycles:  114150381 heartbeat IPC: 0.45618 cumulative IPC: 0.20569 (Simulation time: 0 hr 8 min 31 sec) 
Heartbeat CPU  1 instructions:   79000003 cycles:  114816669 heartbeat IPC: 0.67746 cumulative IPC: 0.32194 (Simulation time: 0 hr 8 min 33 sec) 
Heartbeat CPU  3 instructions:   72000000 cycles:  115357156 heartbeat IPC: 0.21158 cumulative IPC: 0.20928 (Simulation time: 0 hr 8 min 35 sec) 
Heartbeat CPU  2 instructions:   69000000 cycles:  116287890 heartbeat IPC: 0.46783 cumulative IPC: 0.21194 (Simulation time: 0 hr 8 min 38 sec) 
Heartbeat CPU  1 instructions:   80000000 cycles:  116288321 heartbeat IPC: 0.67951 cumulative IPC: 0.32781 (Simulation time: 0 hr 8 min 38 sec) 
Heartbeat CPU  0 instructions:   70000003 cycles:  116845728 heartbeat IPC: 0.20748 cumulative IPC: 0.21370 (Simulation time: 0 hr 8 min 39 sec) 
Heartbeat CPU  1 instructions:   81000003 cycles:  117748766 heartbeat IPC: 0.68472 cumulative IPC: 0.33353 (Simulation time: 0 hr 8 min 42 sec) 
Heartbeat CPU  2 instructions:   70000002 cycles:  118448759 heartbeat IPC: 0.46278 cumulative IPC: 0.21785 (Simulation time: 0 hr 8 min 44 sec) 
Heartbeat CPU  1 instructions:   82000002 cycles:  119124588 heartbeat IPC: 0.72684 cumulative IPC: 0.33938 (Simulation time: 0 hr 8 min 46 sec) 
Heartbeat CPU  3 instructions:   73000003 cycles:  120163531 heartbeat IPC: 0.20806 cumulative IPC: 0.20922 (Simulation time: 0 hr 8 min 50 sec) 
Heartbeat CPU  2 instructions:   71000002 cycles:  120522058 heartbeat IPC: 0.48232 cumulative IPC: 0.22369 (Simulation time: 0 hr 8 min 51 sec) 
Heartbeat CPU  1 instructions:   83000002 cycles:  120668023 heartbeat IPC: 0.64791 cumulative IPC: 0.34445 (Simulation time: 0 hr 8 min 51 sec) 
Heartbeat CPU  0 instructions:   71000003 cycles:  120738760 heartbeat IPC: 0.25687 cumulative IPC: 0.21548 (Simulation time: 0 hr 8 min 52 sec) 
Heartbeat CPU  1 instructions:   84000000 cycles:  122143118 heartbeat IPC: 0.67792 cumulative IPC: 0.34960 (Simulation time: 0 hr 8 min 57 sec) 
Heartbeat CPU  0 instructions:   72000000 cycles:  122271519 heartbeat IPC: 0.65242 cumulative IPC: 0.22249 (Simulation time: 0 hr 8 min 58 sec) 
Heartbeat CPU  2 instructions:   72000000 cycles:  122301929 heartbeat IPC: 0.56184 cumulative IPC: 0.22998 (Simulation time: 0 hr 8 min 58 sec) 
Heartbeat CPU  1 instructions:   85000001 cycles:  123653719 heartbeat IPC: 0.66199 cumulative IPC: 0.35446 (Simulation time: 0 hr 9 min 3 sec) 
Heartbeat CPU  0 instructions:   73000001 cycles:  123810675 heartbeat IPC: 0.64971 cumulative IPC: 0.22925 (Simulation time: 0 hr 9 min 4 sec) 
Heartbeat CPU  2 instructions:   73000000 cycles:  124133726 heartbeat IPC: 0.54591 cumulative IPC: 0.23591 (Simulation time: 0 hr 9 min 5 sec) 
Heartbeat CPU  3 instructions:   74000001 cycles:  124989447 heartbeat IPC: 0.20721 cumulative IPC: 0.20912 (Simulation time: 0 hr 9 min 9 sec) 
Heartbeat CPU  1 instructions:   86000000 cycles:  125062905 heartbeat IPC: 0.70963 cumulative IPC: 0.35955 (Simulation time: 0 hr 9 min 9 sec) 
Heartbeat CPU  0 instructions:   74000001 cycles:  125217799 heartbeat IPC: 0.71067 cumulative IPC: 0.23613 (Simulation time: 0 hr 9 min 10 sec) 
Heartbeat CPU  2 instructions:   74000001 cycles:  125962603 heartbeat IPC: 0.54678 cumulative IPC: 0.24164 (Simulation time: 0 hr 9 min 13 sec) 
Heartbeat CPU  1 instructions:   87000000 cycles:  126501647 heartbeat IPC: 0.69505 cumulative IPC: 0.36438 (Simulation time: 0 hr 9 min 15 sec) 
Heartbeat CPU  0 instructions:   75000001 cycles:  126668823 heartbeat IPC: 0.68917 cumulative IPC: 0.24270 (Simulation time: 0 hr 9 min 16 sec) 
Heartbeat CPU  2 instructions:   75000000 cycles:  127728478 heartbeat IPC: 0.56629 cumulative IPC: 0.24731 (Simulation time: 0 hr 9 min 20 sec) 
Heartbeat CPU  0 instructions:   76000000 cycles:  128128023 heartbeat IPC: 0.68531 cumulative IPC: 0.24906 (Simulation time: 0 hr 9 min 21 sec) 
Heartbeat CPU  1 instructions:   88000000 cycles:  129191460 heartbeat IPC: 0.37177 cumulative IPC: 0.36457 (Simulation time: 0 hr 9 min 24 sec) 
Heartbeat CPU  2 instructions:   76000000 cycles:  129577939 heartbeat IPC: 0.54070 cumulative IPC: 0.25258 (Simulation time: 0 hr 9 min 25 sec) 
Heartbeat CPU  3 instructions:   75000002 cycles:  129869926 heartbeat IPC: 0.20490 cumulative IPC: 0.20892 (Simulation time: 0 hr 9 min 25 sec) 
Heartbeat CPU  2 instructions:   77000003 cycles:  131916719 heartbeat IPC: 0.42757 cumulative IPC: 0.25647 (Simulation time: 0 hr 9 min 30 sec) 
Heartbeat CPU  0 instructions:   77000001 cycles:  132807997 heartbeat IPC: 0.21368 cumulative IPC: 0.24750 (Simulation time: 0 hr 9 min 32 sec) 
Heartbeat CPU  1 instructions:   89000003 cycles:  133963380 heartbeat IPC: 0.20956 cumulative IPC: 0.35768 (Simulation time: 0 hr 9 min 35 sec) 
Heartbeat CPU  2 instructions:   78000000 cycles:  134311514 heartbeat IPC: 0.41757 cumulative IPC: 0.26005 (Simulation time: 0 hr 9 min 35 sec) 
Heartbeat CPU  3 instructions:   76000000 cycles:  134576634 heartbeat IPC: 0.21246 cumulative IPC: 0.20908 (Simulation time: 0 hr 9 min 36 sec) 
Heartbeat CPU  2 instructions:   79000001 cycles:  136539429 heartbeat IPC: 0.44885 cumulative IPC: 0.26388 (Simulation time: 0 hr 9 min 41 sec) 
Heartbeat CPU  0 instructions:   78000002 cycles:  137492948 heartbeat IPC: 0.21345 cumulative IPC: 0.24606 (Simulation time: 0 hr 9 min 43 sec) 
Heartbeat CPU  2 instructions:   80000000 cycles:  138659237 heartbeat IPC: 0.47174 cumulative IPC: 0.26781 (Simulation time: 0 hr 9 min 46 sec) 
Heartbeat CPU  1 instructions:   90000001 cycles:  138713521 heartbeat IPC: 0.21052 cumulative IPC: 0.35144 (Simulation time: 0 hr 9 min 46 sec) 
Heartbeat CPU  3 instructions:   77000003 cycles:  139258143 heartbeat IPC: 0.21361 cumulative IPC: 0.20926 (Simulation time: 0 hr 9 min 47 sec) 
Heartbeat CPU  2 instructions:   81000003 cycles:  140914822 heartbeat IPC: 0.44335 cumulative IPC: 0.27128 (Simulation time: 0 hr 9 min 51 sec) 
Heartbeat CPU  0 instructions:   79000002 cycles:  142104131 heartbeat IPC: 0.21686 cumulative IPC: 0.24490 (Simulation time: 0 hr 9 min 54 sec) 
Heartbeat CPU  2 instructions:   82000000 cycles:  143140222 heartbeat IPC: 0.44936 cumulative IPC: 0.27468 (Simulation time: 0 hr 9 min 56 sec) 
Heartbeat CPU  1 instructions:   91000000 cycles:  143458520 heartbeat IPC: 0.21075 cumulative IPC: 0.34573 (Simulation time: 0 hr 9 min 57 sec) 
Heartbeat CPU  3 instructions:   78000002 cycles:  144083833 heartbeat IPC: 0.20722 cumulative IPC: 0.20918 (Simulation time: 0 hr 9 min 58 sec) 
Heartbeat CPU  2 instructions:   83000001 cycles:  145482586 heartbeat IPC: 0.42692 cumulative IPC: 0.27768 (Simulation time: 0 hr 10 min 2 sec) 
Heartbeat CPU  0 instructions:   80000000 cycles:  146742570 heartbeat IPC: 0.21559 cumulative IPC: 0.24376 (Simulation time: 0 hr 10 min 5 sec) 
Heartbeat CPU  2 instructions:   84000000 cycles:  147789942 heartbeat IPC: 0.43340 cumulative IPC: 0.28065 (Simulation time: 0 hr 10 min 7 sec) 
Heartbeat CPU  1 instructions:   92000000 cycles:  148137397 heartbeat IPC: 0.21373 cumulative IPC: 0.34065 (Simulation time: 0 hr 10 min 8 sec) 
Heartbeat CPU  3 instructions:   79000001 cycles:  148756658 heartbeat IPC: 0.21400 cumulative IPC: 0.20937 (Simulation time: 0 hr 10 min 9 sec) 
Heartbeat CPU  2 instructions:   85000000 cycles:  150104296 heartbeat IPC: 0.43209 cumulative IPC: 0.28348 (Simulation time: 0 hr 10 min 12 sec) 
Heartbeat CPU  0 instructions:   81000002 cycles:  151439383 heartbeat IPC: 0.21291 cumulative IPC: 0.24260 (Simulation time: 0 hr 10 min 16 sec) 
Heartbeat CPU  2 instructions:   86000001 cycles:  152307267 heartbeat IPC: 0.45393 cumulative IPC: 0.28647 (Simulation time: 0 hr 10 min 18 sec) 
Heartbeat CPU  1 instructions:   93000000 cycles:  152910786 heartbeat IPC: 0.20949 cumulative IPC: 0.33569 (Simulation time: 0 hr 10 min 19 sec) 
Heartbeat CPU  3 instructions:   80000000 cycles:  153498254 heartbeat IPC: 0.21090 cumulative IPC: 0.20942 (Simulation time: 0 hr 10 min 20 sec) 
Heartbeat CPU  2 instructions:   87000001 cycles:  154505161 heartbeat IPC: 0.45498 cumulative IPC: 0.28937 (Simulation time: 0 hr 10 min 23 sec) 
Heartbeat CPU  0 instructions:   82000003 cycles:  156070693 heartbeat IPC: 0.21592 cumulative IPC: 0.24165 (Simulation time: 0 hr 10 min 26 sec) 
Heartbeat CPU  1 instructions:   94000000 cycles:  157706176 heartbeat IPC: 0.20853 cumulative IPC: 0.33104 (Simulation time: 0 hr 10 min 29 sec) 
Heartbeat CPU  2 instructions:   88000000 cycles:  158166340 heartbeat IPC: 0.27314 cumulative IPC: 0.28892 (Simulation time: 0 hr 10 min 30 sec) 
Heartbeat CPU  3 instructions:   81000000 cycles:  158194266 heartbeat IPC: 0.21295 cumulative IPC: 0.20955 (Simulation time: 0 hr 10 min 30 sec) 
Heartbeat CPU  0 instructions:   83000000 cycles:  160588627 heartbeat IPC: 0.22134 cumulative IPC: 0.24096 (Simulation time: 0 hr 10 min 34 sec) 
Heartbeat CPU  1 instructions:   95000002 cycles:  162505097 heartbeat IPC: 0.20838 cumulative IPC: 0.32670 (Simulation time: 0 hr 10 min 38 sec) 
Heartbeat CPU  2 instructions:   89000003 cycles:  162846984 heartbeat IPC: 0.21365 cumulative IPC: 0.28633 (Simulation time: 0 hr 10 min 39 sec) 
Heartbeat CPU  3 instructions:   82000003 cycles:  162953911 heartbeat IPC: 0.21010 cumulative IPC: 0.20957 (Simulation time: 0 hr 10 min 39 sec) 
Heartbeat CPU  0 instructions:   84000000 cycles:  165326600 heartbeat IPC: 0.21106 cumulative IPC: 0.23994 (Simulation time: 0 hr 10 min 44 sec) 
Heartbeat CPU  2 instructions:   90000000 cycles:  165571448 heartbeat IPC: 0.36704 cumulative IPC: 0.28791 (Simulation time: 0 hr 10 min 45 sec) 
Heartbeat CPU  1 instructions:   96000000 cycles:  167181592 heartbeat IPC: 0.21383 cumulative IPC: 0.32295 (Simulation time: 0 hr 10 min 48 sec) 
Heartbeat CPU  3 instructions:   83000003 cycles:  167672150 heartbeat IPC: 0.21194 cumulative IPC: 0.20965 (Simulation time: 0 hr 10 min 49 sec) 
Heartbeat CPU  2 instructions:   91000000 cycles:  168233635 heartbeat IPC: 0.37563 cumulative IPC: 0.28956 (Simulation time: 0 hr 10 min 51 sec) 
Heartbeat CPU  0 instructions:   85000002 cycles:  170033606 heartbeat IPC: 0.21245 cumulative IPC: 0.23904 (Simulation time: 0 hr 10 min 55 sec) 
Heartbeat CPU  2 instructions:   92000000 cycles:  170871320 heartbeat IPC: 0.37912 cumulative IPC: 0.29120 (Simulation time: 0 hr 10 min 56 sec) 
Heartbeat CPU  1 instructions:   97000000 cycles:  171977157 heartbeat IPC: 0.20853 cumulative IPC: 0.31917 (Simulation time: 0 hr 10 min 59 sec) 
Heartbeat CPU  3 instructions:   84000000 cycles:  172395108 heartbeat IPC: 0.21173 cumulative IPC: 0.20971 (Simulation time: 0 hr 11 min 0 sec) 
Heartbeat CPU  0 instructions:   86000000 cycles:  174765024 heartbeat IPC: 0.21135 cumulative IPC: 0.23816 (Simulation time: 0 hr 11 min 4 sec) 
Heartbeat CPU  2 instructions:   93000001 cycles:  175623096 heartbeat IPC: 0.21045 cumulative IPC: 0.28862 (Simulation time: 0 hr 11 min 5 sec) 
Heartbeat CPU  1 instructions:   98000003 cycles:  176754173 heartbeat IPC: 0.20934 cumulative IPC: 0.31568 (Simulation time: 0 hr 11 min 8 sec) 
Heartbeat CPU  3 instructions:   85000002 cycles:  177073772 heartbeat IPC: 0.21374 cumulative IPC: 0.20984 (Simulation time: 0 hr 11 min 8 sec) 
Heartbeat CPU  0 instructions:   87000003 cycles:  179535267 heartbeat IPC: 0.20963 cumulative IPC: 0.23727 (Simulation time: 0 hr 11 min 13 sec) 
Heartbeat CPU  2 instructions:   94000000 cycles:  181380743 heartbeat IPC: 0.17368 cumulative IPC: 0.28435 (Simulation time: 0 hr 11 min 16 sec) 
Heartbeat CPU  1 instructions:   99000000 cycles:  181539408 heartbeat IPC: 0.20898 cumulative IPC: 0.31238 (Simulation time: 0 hr 11 min 16 sec) 
Heartbeat CPU  3 instructions:   86000001 cycles:  181759452 heartbeat IPC: 0.21342 cumulative IPC: 0.20995 (Simulation time: 0 hr 11 min 17 sec) 
Heartbeat CPU  0 instructions:   88000000 cycles:  183981023 heartbeat IPC: 0.22493 cumulative IPC: 0.23692 (Simulation time: 0 hr 11 min 21 sec) 
*** Reached end of trace for Core: 1 Repeating trace: /data3/STREAMING/traces/streaming_phase2_core1.trace.xz
Heartbeat CPU  1 instructions:  100000000 cycles:  186320116 heartbeat IPC: 0.20917 cumulative IPC: 0.30929 (Simulation time: 0 hr 11 min 25 sec) 
Heartbeat CPU  3 instructions:   87000001 cycles:  186411886 heartbeat IPC: 0.21494 cumulative IPC: 0.21009 (Simulation time: 0 hr 11 min 25 sec) 
Heartbeat CPU  2 instructions:   95000000 cycles:  187194167 heartbeat IPC: 0.17202 cumulative IPC: 0.28028 (Simulation time: 0 hr 11 min 27 sec) 
Heartbeat CPU  0 instructions:   89000000 cycles:  188733923 heartbeat IPC: 0.21040 cumulative IPC: 0.23614 (Simulation time: 0 hr 11 min 30 sec) 
Heartbeat CPU  1 instructions:  101000001 cycles:  191066043 heartbeat IPC: 0.21071 cumulative IPC: 0.30645 (Simulation time: 0 hr 11 min 34 sec) 
Heartbeat CPU  3 instructions:   88000000 cycles:  191117177 heartbeat IPC: 0.21253 cumulative IPC: 0.21016 (Simulation time: 0 hr 11 min 34 sec) 
Heartbeat CPU  2 instructions:   96000000 cycles:  193005329 heartbeat IPC: 0.17208 cumulative IPC: 0.27650 (Simulation time: 0 hr 11 min 37 sec) 
Heartbeat CPU  0 instructions:   90000003 cycles:  193487195 heartbeat IPC: 0.21038 cumulative IPC: 0.23541 (Simulation time: 0 hr 11 min 38 sec) 
Heartbeat CPU  1 instructions:  102000001 cycles:  195720624 heartbeat IPC: 0.21484 cumulative IPC: 0.30392 (Simulation time: 0 hr 11 min 42 sec) 
Heartbeat CPU  3 instructions:   89000003 cycles:  195944245 heartbeat IPC: 0.20717 cumulative IPC: 0.21008 (Simulation time: 0 hr 11 min 43 sec) 
Heartbeat CPU  0 instructions:   91000003 cycles:  198228939 heartbeat IPC: 0.21089 cumulative IPC: 0.23473 (Simulation time: 0 hr 11 min 47 sec) 
Heartbeat CPU  2 instructions:   97000001 cycles:  198807346 heartbeat IPC: 0.17235 cumulative IPC: 0.27299 (Simulation time: 0 hr 11 min 48 sec) 
Heartbeat CPU  1 instructions:  103000001 cycles:  200344271 heartbeat IPC: 0.21628 cumulative IPC: 0.30159 (Simulation time: 0 hr 11 min 51 sec) 
Heartbeat CPU  3 instructions:   90000000 cycles:  200710702 heartbeat IPC: 0.20980 cumulative IPC: 0.21007 (Simulation time: 0 hr 11 min 51 sec) 
Heartbeat CPU  0 instructions:   92000000 cycles:  202899916 heartbeat IPC: 0.21409 cumulative IPC: 0.23418 (Simulation time: 0 hr 11 min 55 sec) 
Heartbeat CPU  2 instructions:   98000000 cycles:  204745134 heartbeat IPC: 0.16841 cumulative IPC: 0.26950 (Simulation time: 0 hr 11 min 59 sec) 
Heartbeat CPU  1 instructions:  104000000 cycles:  205038118 heartbeat IPC: 0.21304 cumulative IPC: 0.29926 (Simulation time: 0 hr 11 min 59 sec) 
Heartbeat CPU  3 instructions:   91000002 cycles:  205380294 heartbeat IPC: 0.21415 cumulative IPC: 0.21018 (Simulation time: 0 hr 12 min 0 sec) 
Heartbeat CPU  0 instructions:   93000001 cycles:  207612103 heartbeat IPC: 0.21222 cumulative IPC: 0.23361 (Simulation time: 0 hr 12 min 4 sec) 
Heartbeat CPU  1 instructions:  105000000 cycles:  209734506 heartbeat IPC: 0.21293 cumulative IPC: 0.29705 (Simulation time: 0 hr 12 min 8 sec) 
Heartbeat CPU  3 instructions:   92000000 cycles:  209987454 heartbeat IPC: 0.21705 cumulative IPC: 0.21035 (Simulation time: 0 hr 12 min 9 sec) 
Heartbeat CPU  2 instructions:   99000001 cycles:  210597433 heartbeat IPC: 0.17087 cumulative IPC: 0.26637 (Simulation time: 0 hr 12 min 10 sec) 
Heartbeat CPU  0 instructions:   94000003 cycles:  212283547 heartbeat IPC: 0.21407 cumulative IPC: 0.23312 (Simulation time: 0 hr 12 min 13 sec) 
Heartbeat CPU  1 instructions:  106000002 cycles:  214521800 heartbeat IPC: 0.20889 cumulative IPC: 0.29480 (Simulation time: 0 hr 12 min 17 sec) 
Heartbeat CPU  3 instructions:   93000000 cycles:  214724148 heartbeat IPC: 0.21112 cumulative IPC: 0.21037 (Simulation time: 0 hr 12 min 17 sec) 
*** Reached end of trace for Core: 2 Repeating trace: /data3/STREAMING/traces/streaming_phase2_core2.trace.xz
Heartbeat CPU  2 instructions:  100000000 cycles:  216283164 heartbeat IPC: 0.17588 cumulative IPC: 0.26365 (Simulation time: 0 hr 12 min 20 sec) 
Heartbeat CPU  0 instructions:   95000002 cycles:  217062743 heartbeat IPC: 0.20924 cumulative IPC: 0.23252 (Simulation time: 0 hr 12 min 22 sec) 
Heartbeat CPU  2 instructions:  101000001 cycles:  218816549 heartbeat IPC: 0.39473 cumulative IPC: 0.26538 (Simulation time: 0 hr 12 min 26 sec) 
Heartbeat CPU  1 instructions:  107000002 cycles:  219289088 heartbeat IPC: 0.20976 cumulative IPC: 0.29270 (Simulation time: 0 hr 12 min 27 sec) 
Heartbeat CPU  3 instructions:   94000002 cycles:  219571007 heartbeat IPC: 0.20632 cumulative IPC: 0.21027 (Simulation time: 0 hr 12 min 28 sec) 
Heartbeat CPU  2 instructions:  102000002 cycles:  221193165 heartbeat IPC: 0.42077 cumulative IPC: 0.26728 (Simulation time: 0 hr 12 min 31 sec) 
Heartbeat CPU  0 instructions:   96000000 cycles:  221788428 heartbeat IPC: 0.21161 cumulative IPC: 0.23201 (Simulation time: 0 hr 12 min 33 sec) 
Heartbeat CPU  2 instructions:  103000002 cycles:  223503873 heartbeat IPC: 0.43277 cumulative IPC: 0.26922 (Simulation time: 0 hr 12 min 36 sec) 
Heartbeat CPU  1 instructions:  108000000 cycles:  224069676 heartbeat IPC: 0.20918 cumulative IPC: 0.29067 (Simulation time: 0 hr 12 min 38 sec) 
Heartbeat CPU  3 instructions:   95000000 cycles:  224400323 heartbeat IPC: 0.20707 cumulative IPC: 0.21019 (Simulation time: 0 hr 12 min 38 sec) 
Heartbeat CPU  2 instructions:  104000000 cycles:  225883181 heartbeat IPC: 0.42029 cumulative IPC: 0.27103 (Simulation time: 0 hr 12 min 42 sec) 
Heartbeat CPU  0 instructions:   97000000 cycles:  226557054 heartbeat IPC: 0.20970 cumulative IPC: 0.23148 (Simulation time: 0 hr 12 min 43 sec) 
Heartbeat CPU  2 instructions:  105000000 cycles:  228302935 heartbeat IPC: 0.41327 cumulative IPC: 0.27273 (Simulation time: 0 hr 12 min 47 sec) 
Heartbeat CPU  1 instructions:  109000003 cycles:  228746044 heartbeat IPC: 0.21384 cumulative IPC: 0.28890 (Simulation time: 0 hr 12 min 48 sec) 
Heartbeat CPU  3 instructions:   96000000 cycles:  229086223 heartbeat IPC: 0.21341 cumulative IPC: 0.21026 (Simulation time: 0 hr 12 min 49 sec) 
Heartbeat CPU  2 instructions:  106000000 cycles:  230640212 heartbeat IPC: 0.42785 cumulative IPC: 0.27451 (Simulation time: 0 hr 12 min 52 sec) 
Heartbeat CPU  0 instructions:   98000000 cycles:  231333744 heartbeat IPC: 0.20935 cumulative IPC: 0.23096 (Simulation time: 0 hr 12 min 54 sec) 
Heartbeat CPU  2 instructions:  107000000 cycles:  233041966 heartbeat IPC: 0.41636 cumulative IPC: 0.27616 (Simulation time: 0 hr 12 min 58 sec) 
Heartbeat CPU  1 instructions:  110000002 cycles:  233546291 heartbeat IPC: 0.20832 cumulative IPC: 0.28703 (Simulation time: 0 hr 12 min 59 sec) 
Heartbeat CPU  3 instructions:   97000000 cycles:  234080707 heartbeat IPC: 0.20022 cumulative IPC: 0.21002 (Simulation time: 0 hr 13 min 0 sec) 
Heartbeat CPU  2 instructions:  108000000 cycles:  235479778 heartbeat IPC: 0.41020 cumulative IPC: 0.27773 (Simulation time: 0 hr 13 min 3 sec) 
Heartbeat CPU  0 instructions:   99000000 cycles:  236128042 heartbeat IPC: 0.20858 cumulative IPC: 0.23045 (Simulation time: 0 hr 13 min 5 sec) 
Heartbeat CPU  2 instructions:  109000000 cycles:  237908297 heartbeat IPC: 0.41177 cumulative IPC: 0.27927 (Simulation time: 0 hr 13 min 9 sec) 
Heartbeat CPU  1 instructions:  111000003 cycles:  238320302 heartbeat IPC: 0.20947 cumulative IPC: 0.28528 (Simulation time: 0 hr 13 min 9 sec) 
Heartbeat CPU  3 instructions:   98000003 cycles:  238948003 heartbeat IPC: 0.20545 cumulative IPC: 0.20992 (Simulation time: 0 hr 13 min 11 sec) 
*** Reached end of trace for Core: 0 Repeating trace: /data3/STREAMING/traces/streaming_phase2_core0.trace.xz
Heartbeat CPU  0 instructions:  100000000 cycles:  240878323 heartbeat IPC: 0.21051 cumulative IPC: 0.23001 (Simulation time: 0 hr 13 min 14 sec) 
Heartbeat CPU  2 instructions:  110000001 cycles:  242182470 heartbeat IPC: 0.23396 cumulative IPC: 0.27837 (Simulation time: 0 hr 13 min 17 sec) 
Heartbeat CPU  1 instructions:  112000000 cycles:  243137298 heartbeat IPC: 0.20760 cumulative IPC: 0.28355 (Simulation time: 0 hr 13 min 19 sec) 
Heartbeat CPU  3 instructions:   99000002 cycles:  243777031 heartbeat IPC: 0.20708 cumulative IPC: 0.20985 (Simulation time: 0 hr 13 min 20 sec) 
Heartbeat CPU  0 instructions:  101000002 cycles:  245564674 heartbeat IPC: 0.21339 cumulative IPC: 0.22965 (Simulation time: 0 hr 13 min 23 sec) 
Heartbeat CPU  1 instructions:  113000003 cycles:  247949429 heartbeat IPC: 0.20781 cumulative IPC: 0.28190 (Simulation time: 0 hr 13 min 27 sec) 
Heartbeat CPU  2 instructions:  111000002 cycles:  248052617 heartbeat IPC: 0.17035 cumulative IPC: 0.27550 (Simulation time: 0 hr 13 min 28 sec) 
*** Reached end of trace for Core: 3 Repeating trace: /data3/STREAMING/traces/streaming_phase2_core3.trace.xz
Heartbeat CPU  3 instructions:  100000000 cycles:  248414373 heartbeat IPC: 0.21564 cumulative IPC: 0.20997 (Simulation time: 0 hr 13 min 28 sec) 
Heartbeat CPU  3 instructions:  101000000 cycles:  250078659 heartbeat IPC: 0.60086 cumulative IPC: 0.21289 (Simulation time: 0 hr 13 min 33 sec) 
Heartbeat CPU  0 instructions:  102000000 cycles:  250142411 heartbeat IPC: 0.21845 cumulative IPC: 0.22942 (Simulation time: 0 hr 13 min 33 sec) 
Heartbeat CPU  3 instructions:  102000000 cycles:  251678125 heartbeat IPC: 0.62521 cumulative IPC: 0.21582 (Simulation time: 0 hr 13 min 37 sec) 
Heartbeat CPU  1 instructions:  114000000 cycles:  252794511 heartbeat IPC: 0.20639 cumulative IPC: 0.28028 (Simulation time: 0 hr 13 min 39 sec) 
Heartbeat CPU  3 instructions:  103000000 cycles:  253134961 heartbeat IPC: 0.68642 cumulative IPC: 0.21884 (Simulation time: 0 hr 13 min 40 sec) 
Heartbeat CPU  2 instructions:  112000000 cycles:  253728811 heartbeat IPC: 0.17617 cumulative IPC: 0.27302 (Simulation time: 0 hr 13 min 42 sec) 
Heartbeat CPU  3 instructions:  104000000 cycles:  254608852 heartbeat IPC: 0.67848 cumulative IPC: 0.22182 (Simulation time: 0 hr 13 min 44 sec) 
Heartbeat CPU  0 instructions:  103000002 cycles:  254773917 heartbeat IPC: 0.21591 cumulative IPC: 0.22915 (Simulation time: 0 hr 13 min 44 sec) 
Heartbeat CPU  3 instructions:  105000001 cycles:  256089492 heartbeat IPC: 0.67538 cumulative IPC: 0.22474 (Simulation time: 0 hr 13 min 48 sec) 
Heartbeat CPU  3 instructions:  106000000 cycles:  257503360 heartbeat IPC: 0.70728 cumulative IPC: 0.22770 (Simulation time: 0 hr 13 min 51 sec) 
Heartbeat CPU  1 instructions:  115000001 cycles:  257571924 heartbeat IPC: 0.20932 cumulative IPC: 0.27882 (Simulation time: 0 hr 13 min 52 sec) 
Heartbeat CPU  3 instructions:  107000001 cycles:  258912337 heartbeat IPC: 0.70974 cumulative IPC: 0.23062 (Simulation time: 0 hr 13 min 55 sec) 
Heartbeat CPU  0 instructions:  104000000 cycles:  259445309 heartbeat IPC: 0.21407 cumulative IPC: 0.22885 (Simulation time: 0 hr 13 min 57 sec) 
Heartbeat CPU  2 instructions:  113000003 cycles:  259568398 heartbeat IPC: 0.17125 cumulative IPC: 0.27047 (Simulation time: 0 hr 13 min 57 sec) 
Heartbeat CPU  3 instructions:  108000000 cycles:  260364658 heartbeat IPC: 0.68855 cumulative IPC: 0.23347 (Simulation time: 0 hr 13 min 59 sec) 
Heartbeat CPU  3 instructions:  109000003 cycles:  261820373 heartbeat IPC: 0.68695 cumulative IPC: 0.23627 (Simulation time: 0 hr 14 min 3 sec) 
Heartbeat CPU  1 instructions:  116000000 cycles:  262270607 heartbeat IPC: 0.21283 cumulative IPC: 0.27750 (Simulation time: 0 hr 14 min 4 sec) 
Heartbeat CPU  0 instructions:  105000003 cycles:  264199995 heartbeat IPC: 0.21032 cumulative IPC: 0.22848 (Simulation time: 0 hr 14 min 8 sec) 
Heartbeat CPU  3 instructions:  110000001 cycles:  265128787 heartbeat IPC: 0.30226 cumulative IPC: 0.23719 (Simulation time: 0 hr 14 min 9 sec) 
Heartbeat CPU  2 instructions:  114000000 cycles:  265401544 heartbeat IPC: 0.17143 cumulative IPC: 0.26805 (Simulation time: 0 hr 14 min 10 sec) 
Heartbeat CPU  1 instructions:  117000003 cycles:  267270114 heartbeat IPC: 0.20002 cumulative IPC: 0.27589 (Simulation time: 0 hr 14 min 13 sec) 
Heartbeat CPU  0 instructions:  106000000 cycles:  268836847 heartbeat IPC: 0.21566 cumulative IPC: 0.22823 (Simulation time: 0 hr 14 min 16 sec) 
Heartbeat CPU  3 instructions:  111000002 cycles:  269908236 heartbeat IPC: 0.20923 cumulative IPC: 0.23664 (Simulation time: 0 hr 14 min 18 sec) 
Heartbeat CPU  2 instructions:  115000002 cycles:  271152800 heartbeat IPC: 0.17388 cumulative IPC: 0.26584 (Simulation time: 0 hr 14 min 20 sec) 
Heartbeat CPU  1 instructions:  118000001 cycles:  272120141 heartbeat IPC: 0.20618 cumulative IPC: 0.27451 (Simulation time: 0 hr 14 min 22 sec) 
Heartbeat CPU  0 instructions:  107000001 cycles:  273534233 heartbeat IPC: 0.21288 cumulative IPC: 0.22794 (Simulation time: 0 hr 14 min 25 sec) 
Heartbeat CPU  3 instructions:  112000000 cycles:  274667911 heartbeat IPC: 0.21010 cumulative IPC: 0.23613 (Simulation time: 0 hr 14 min 27 sec) 
Heartbeat CPU  1 instructions:  119000001 cycles:  276921223 heartbeat IPC: 0.20829 cumulative IPC: 0.27324 (Simulation time: 0 hr 14 min 31 sec) 
Heartbeat CPU  2 instructions:  116000000 cycles:  276939895 heartbeat IPC: 0.17280 cumulative IPC: 0.26368 (Simulation time: 0 hr 14 min 31 sec) 
Heartbeat CPU  0 instructions:  108000000 cycles:  278207294 heartbeat IPC: 0.21399 cumulative IPC: 0.22768 (Simulation time: 0 hr 14 min 34 sec) 
Heartbeat CPU  3 instructions:  113000003 cycles:  279457712 heartbeat IPC: 0.20878 cumulative IPC: 0.23561 (Simulation time: 0 hr 14 min 36 sec) 
Heartbeat CPU  1 instructions:  120000000 cycles:  281561592 heartbeat IPC: 0.21550 cumulative IPC: 0.27219 (Simulation time: 0 hr 14 min 40 sec) 
Heartbeat CPU  2 instructions:  117000003 cycles:  282701710 heartbeat IPC: 0.17356 cumulative IPC: 0.26166 (Simulation time: 0 hr 14 min 42 sec) 
Heartbeat CPU  0 instructions:  109000003 cycles:  283034245 heartbeat IPC: 0.20717 cumulative IPC: 0.22729 (Simulation time: 0 hr 14 min 42 sec) 
Heartbeat CPU  3 instructions:  114000003 cycles:  284153830 heartbeat IPC: 0.21294 cumulative IPC: 0.23520 (Simulation time: 0 hr 14 min 45 sec) 
Heartbeat CPU  1 instructions:  121000001 cycles:  286220547 heartbeat IPC: 0.21464 cumulative IPC: 0.27116 (Simulation time: 0 hr 14 min 48 sec) 
Heartbeat CPU  0 instructions:  110000003 cycles:  287804590 heartbeat IPC: 0.20963 cumulative IPC: 0.22697 (Simulation time: 0 hr 14 min 51 sec) 
Heartbeat CPU  2 instructions:  118000002 cycles:  288586616 heartbeat IPC: 0.16993 cumulative IPC: 0.25960 (Simulation time: 0 hr 14 min 53 sec) 
Heartbeat CPU  3 instructions:  115000000 cycles:  288914885 heartbeat IPC: 0.21004 cumulative IPC: 0.23474 (Simulation time: 0 hr 14 min 53 sec) 
Heartbeat CPU  1 instructions:  122000001 cycles:  291030157 heartbeat IPC: 0.20792 cumulative IPC: 0.27001 (Simulation time: 0 hr 14 min 57 sec) 
Heartbeat CPU  0 instructions:  111000002 cycles:  292422365 heartbeat IPC: 0.21655 cumulative IPC: 0.22679 (Simulation time: 0 hr 15 min 0 sec) 
Heartbeat CPU  3 instructions:  116000000 cycles:  293974023 heartbeat IPC: 0.19766 cumulative IPC: 0.23404 (Simulation time: 0 hr 15 min 2 sec) 
Heartbeat CPU  2 instructions:  119000001 cycles:  294442160 heartbeat IPC: 0.17078 cumulative IPC: 0.25765 (Simulation time: 0 hr 15 min 3 sec) 
Heartbeat CPU  1 instructions:  123000000 cycles:  295796902 heartbeat IPC: 0.20979 cumulative IPC: 0.26894 (Simulation time: 0 hr 15 min 6 sec) 
Heartbeat CPU  0 instructions:  112000000 cycles:  297104223 heartbeat IPC: 0.21359 cumulative IPC: 0.22656 (Simulation time: 0 hr 15 min 8 sec) 
Heartbeat CPU  3 instructions:  117000003 cycles:  298969680 heartbeat IPC: 0.20017 cumulative IPC: 0.23342 (Simulation time: 0 hr 15 min 12 sec) 
Heartbeat CPU  2 instructions:  120000000 cycles:  300355583 heartbeat IPC: 0.16911 cumulative IPC: 0.25574 (Simulation time: 0 hr 15 min 14 sec) 
Heartbeat CPU  1 instructions:  124000000 cycles:  300587109 heartbeat IPC: 0.20876 cumulative IPC: 0.26789 (Simulation time: 0 hr 15 min 15 sec) 
Heartbeat CPU  0 instructions:  113000001 cycles:  301826757 heartbeat IPC: 0.21175 cumulative IPC: 0.22631 (Simulation time: 0 hr 15 min 17 sec) 
Heartbeat CPU  3 instructions:  118000000 cycles:  303704987 heartbeat IPC: 0.21118 cumulative IPC: 0.23304 (Simulation time: 0 hr 15 min 20 sec) 
Heartbeat CPU  1 instructions:  125000001 cycles:  305413213 heartbeat IPC: 0.20721 cumulative IPC: 0.26684 (Simulation time: 0 hr 15 min 23 sec) 
Heartbeat CPU  2 instructions:  121000000 cycles:  306095141 heartbeat IPC: 0.17423 cumulative IPC: 0.25407 (Simulation time: 0 hr 15 min 25 sec) 
Heartbeat CPU  0 instructions:  114000001 cycles:  306655333 heartbeat IPC: 0.20710 cumulative IPC: 0.22598 (Simulation time: 0 hr 15 min 26 sec) 
Heartbeat CPU  3 instructions:  119000001 cycles:  308464984 heartbeat IPC: 0.21008 cumulative IPC: 0.23265 (Simulation time: 0 hr 15 min 29 sec) 
Heartbeat CPU  1 instructions:  126000001 cycles:  310262493 heartbeat IPC: 0.20622 cumulative IPC: 0.26580 (Simulation time: 0 hr 15 min 32 sec) 
Heartbeat CPU  0 instructions:  115000003 cycles:  311436033 heartbeat IPC: 0.20917 cumulative IPC: 0.22569 (Simulation time: 0 hr 15 min 35 sec) 
Heartbeat CPU  2 instructions:  122000000 cycles:  312103188 heartbeat IPC: 0.16644 cumulative IPC: 0.25222 (Simulation time: 0 hr 15 min 36 sec) 
Heartbeat CPU  3 instructions:  120000000 cycles:  313263448 heartbeat IPC: 0.20840 cumulative IPC: 0.23225 (Simulation time: 0 hr 15 min 38 sec) 
Heartbeat CPU  1 instructions:  127000001 cycles:  315061964 heartbeat IPC: 0.20836 cumulative IPC: 0.26485 (Simulation time: 0 hr 15 min 41 sec) 
Heartbeat CPU  0 instructions:  116000000 cycles:  316227673 heartbeat IPC: 0.20870 cumulative IPC: 0.22541 (Simulation time: 0 hr 15 min 43 sec) 
Heartbeat CPU  3 instructions:  121000000 cycles:  317912958 heartbeat IPC: 0.21508 cumulative IPC: 0.23197 (Simulation time: 0 hr 15 min 47 sec) 
Heartbeat CPU  2 instructions:  123000003 cycles:  318005178 heartbeat IPC: 0.16943 cumulative IPC: 0.25055 (Simulation time: 0 hr 15 min 47 sec) 
Heartbeat CPU  1 instructions:  128000000 cycles:  319744493 heartbeat IPC: 0.21356 cumulative IPC: 0.26403 (Simulation time: 0 hr 15 min 50 sec) 
Heartbeat CPU  0 instructions:  117000003 cycles:  320988750 heartbeat IPC: 0.21004 cumulative IPC: 0.22516 (Simulation time: 0 hr 15 min 52 sec) 
Heartbeat CPU  3 instructions:  122000001 cycles:  322676268 heartbeat IPC: 0.20994 cumulative IPC: 0.23162 (Simulation time: 0 hr 15 min 55 sec) 
Heartbeat CPU  2 instructions:  124000000 cycles:  323836328 heartbeat IPC: 0.17149 cumulative IPC: 0.24899 (Simulation time: 0 hr 15 min 57 sec) 
Heartbeat CPU  1 instructions:  129000003 cycles:  324467745 heartbeat IPC: 0.21172 cumulative IPC: 0.26320 (Simulation time: 0 hr 15 min 59 sec) 
Heartbeat CPU  0 instructions:  118000003 cycles:  325777290 heartbeat IPC: 0.20883 cumulative IPC: 0.22490 (Simulation time: 0 hr 16 min 1 sec) 
Heartbeat CPU  3 instructions:  123000002 cycles:  327443636 heartbeat IPC: 0.20976 cumulative IPC: 0.23127 (Simulation time: 0 hr 16 min 4 sec) 
Heartbeat CPU  1 instructions:  130000003 cycles:  329190965 heartbeat IPC: 0.21172 cumulative IPC: 0.26239 (Simulation time: 0 hr 16 min 7 sec) 
Heartbeat CPU  2 instructions:  125000002 cycles:  329813499 heartbeat IPC: 0.16730 cumulative IPC: 0.24738 (Simulation time: 0 hr 16 min 8 sec) 
Heartbeat CPU  0 instructions:  119000000 cycles:  330613737 heartbeat IPC: 0.20676 cumulative IPC: 0.22461 (Simulation time: 0 hr 16 min 10 sec) 
Heartbeat CPU  3 instructions:  124000000 cycles:  332190887 heartbeat IPC: 0.21065 cumulative IPC: 0.23095 (Simulation time: 0 hr 16 min 13 sec) 
Heartbeat CPU  1 instructions:  131000002 cycles:  333898413 heartbeat IPC: 0.21243 cumulative IPC: 0.26163 (Simulation time: 0 hr 16 min 16 sec) 
Heartbeat CPU  0 instructions:  120000000 cycles:  335320743 heartbeat IPC: 0.21245 cumulative IPC: 0.22443 (Simulation time: 0 hr 16 min 19 sec) 
Heartbeat CPU  2 instructions:  126000003 cycles:  335753209 heartbeat IPC: 0.16836 cumulative IPC: 0.24587 (Simulation time: 0 hr 16 min 19 sec) 
Heartbeat CPU  3 instructions:  125000000 cycles:  337033572 heartbeat IPC: 0.20650 cumulative IPC: 0.23057 (Simulation time: 0 hr 16 min 22 sec) 
Heartbeat CPU  1 instructions:  132000000 cycles:  338712032 heartbeat IPC: 0.20774 cumulative IPC: 0.26080 (Simulation time: 0 hr 16 min 25 sec) 
Heartbeat CPU  0 instructions:  121000001 cycles:  340057584 heartbeat IPC: 0.21111 cumulative IPC: 0.22423 (Simulation time: 0 hr 16 min 27 sec) 
Heartbeat CPU  2 instructions:  127000000 cycles:  341593659 heartbeat IPC: 0.17122 cumulative IPC: 0.24448 (Simulation time: 0 hr 16 min 31 sec) 
Heartbeat CPU  3 instructions:  126000000 cycles:  341929880 heartbeat IPC: 0.20424 cumulative IPC: 0.23016 (Simulation time: 0 hr 16 min 31 sec) 
Heartbeat CPU  1 instructions:  133000003 cycles:  343451692 heartbeat IPC: 0.21099 cumulative IPC: 0.26005 (Simulation time: 0 hr 16 min 34 sec) 
Heartbeat CPU  0 instructions:  122000001 cycles:  344876498 heartbeat IPC: 0.20752 cumulative IPC: 0.22397 (Simulation time: 0 hr 16 min 37 sec) 
Heartbeat CPU  3 instructions:  127000000 cycles:  346630687 heartbeat IPC: 0.21273 cumulative IPC: 0.22990 (Simulation time: 0 hr 16 min 40 sec) 
Heartbeat CPU  2 instructions:  128000000 cycles:  347460990 heartbeat IPC: 0.17044 cumulative IPC: 0.24313 (Simulation time: 0 hr 16 min 41 sec) 
Heartbeat CPU  1 instructions:  134000003 cycles:  348222041 heartbeat IPC: 0.20963 cumulative IPC: 0.25930 (Simulation time: 0 hr 16 min 43 sec) 
Heartbeat CPU  0 instructions:  123000000 cycles:  349670632 heartbeat IPC: 0.20859 cumulative IPC: 0.22375 (Simulation time: 0 hr 16 min 45 sec) 
Heartbeat CPU  3 instructions:  128000000 cycles:  351419680 heartbeat IPC: 0.20881 cumulative IPC: 0.22959 (Simulation time: 0 hr 16 min 49 sec) 
Heartbeat CPU  1 instructions:  135000001 cycles:  352923489 heartbeat IPC: 0.21270 cumulative IPC: 0.25863 (Simulation time: 0 hr 16 min 52 sec) 
Heartbeat CPU  2 instructions:  129000002 cycles:  353432110 heartbeat IPC: 0.16747 cumulative IPC: 0.24174 (Simulation time: 0 hr 16 min 53 sec) 
Heartbeat CPU  0 instructions:  124000000 cycles:  354386091 heartbeat IPC: 0.21207 cumulative IPC: 0.22358 (Simulation time: 0 hr 16 min 54 sec) 
Heartbeat CPU  3 instructions:  129000002 cycles:  356200072 heartbeat IPC: 0.20919 cumulative IPC: 0.22930 (Simulation time: 0 hr 16 min 58 sec) 
Heartbeat CPU  1 instructions:  136000000 cycles:  357748523 heartbeat IPC: 0.20725 cumulative IPC: 0.25788 (Simulation time: 0 hr 17 min 1 sec) 
Heartbeat CPU  0 instructions:  125000003 cycles:  359279943 heartbeat IPC: 0.20434 cumulative IPC: 0.22329 (Simulation time: 0 hr 17 min 3 sec) 
Heartbeat CPU  2 instructions:  130000000 cycles:  359301845 heartbeat IPC: 0.17037 cumulative IPC: 0.24048 (Simulation time: 0 hr 17 min 3 sec) 
Heartbeat CPU  3 instructions:  130000000 cycles:  360884012 heartbeat IPC: 0.21350 cumulative IPC: 0.22908 (Simulation time: 0 hr 17 min 6 sec) 
Heartbeat CPU  1 instructions:  137000003 cycles:  362535677 heartbeat IPC: 0.20889 cumulative IPC: 0.25719 (Simulation time: 0 hr 17 min 9 sec) 
Heartbeat CPU  0 instructions:  126000000 cycles:  364026723 heartbeat IPC: 0.21067 cumulative IPC: 0.22312 (Simulation time: 0 hr 17 min 12 sec) 
Heartbeat CPU  2 instructions:  131000002 cycles:  365252572 heartbeat IPC: 0.16805 cumulative IPC: 0.23921 (Simulation time: 0 hr 17 min 15 sec) 
[...]
Core_0_L1I_acc_level_5 0
Core_0_L1I_acc_level_6 0
Core_0_L1I_acc_level_7 0
Core_0_L1I_acc_level_8 0
Core_0_L1I_acc_level_9 0

Core_0_L2C_total_access 9704686
Core_0_L2C_total_hit 8414833
Core_0_L2C_total_miss 1289853
Core_0_L2C_loads 7865944
Core_0_L2C_load_hit 6949469
Core_0_L2C_load_miss 916475
Core_0_L2C_RFOs 765307
Core_0_L2C_RFO_hit 419636
Core_0_L2C_RFO_miss 345671
Core_0_L2C_prefetches 0
Core_0_L2C_prefetch_hit 0
Core_0_L2C_prefetch_miss 0
Core_0_L2C_writebacks 1073435
Core_0_L2C_writeback_hit 1045728
Core_0_L2C_writeback_miss 27707
Core_0_L2C_prefetch_requested 0
Core_0_L2C_prefetch_dropped 0
Core_0_L2C_prefetch_issued 0
Core_0_L2C_prefetch_filled 0
Core_0_L2C_prefetch_useful 0
Core_0_L2C_prefetch_useless 0
Core_0_L2C_prefetch_late 0
Core_0_L2C_average_miss_latency 119.92932

Core_0_L2C_rq_access 8631928
Core_0_L2C_rq_forward 0
Core_0_L2C_rq_merged 0
Core_0_L2C_rq_to_cache 8631251
Core_0_L2C_rq_full 0

Core_0_L2C_wq_access 1073435
Core_0_L2C_wq_forward 677
Core_0_L2C_wq_merged 0
Core_0_L2C_wq_to_cache 1073435
Core_0_L2C_wq_full 0

Core_0_L2C_pq_access 0
Core_0_L2C_pq_forward 0
Core_0_L2C_pq_merged 0
Core_0_L2C_pq_to_cache 0
Core_0_L2C_pq_full 0

Core_0_L2C_acc_epochs 187024
Core_0_L2C_acc_level_0 187024
Core_0_L2C_acc_level_1 0
Core_0_L2C_acc_level_2 0
Core_0_L2C_acc_level_3 0
Core_0_L2C_acc_level_4 0
Core_0_L2C_acc_level_5 0
Core_0_L2C_acc_level_6 0
Core_0_L2C_acc_level_7 0
Core_0_L2C_acc_level_8 0
Core_0_L2C_acc_level_9 0

Core_0_LLC_total_access 1715867
Core_0_LLC_total_hit 1106818
Core_0_LLC_total_miss 609049
Core_0_LLC_loads 916471
Core_0_LLC_load_hit 474530
Core_0_LLC_load_miss 441941
Core_0_LLC_RFOs 345666
Core_0_LLC_RFO_hit 227084
Core_0_LLC_RFO_miss 118582
Core_0_LLC_prefetches 0
Core_0_LLC_prefetch_hit 0
Core_0_LLC_prefetch_miss 0
Core_0_LLC_writebacks 453730
Core_0_LLC_writeback_hit 405204
Core_0_LLC_writeback_miss 48526
Core_0_LLC_prefetch_requested 0
Core_0_LLC_prefetch_dropped 0
Core_0_LLC_prefetch_issued 0
Core_0_LLC_prefetch_filled 0
Core_0_LLC_prefetch_useful 0
Core_0_LLC_prefetch_useless 0
Core_0_LLC_prefetch_late 0
Core_0_LLC_average_miss_latency 662.13068

Core_0_LLC_rq_access 5213172
Core_0_LLC_rq_forward 0
Core_0_LLC_rq_merged 0
Core_0_LLC_rq_to_cache 5213082
Core_0_LLC_rq_full 0

Core_0_LLC_wq_access 1593797
Core_0_LLC_wq_forward 90
Core_0_LLC_wq_merged 0
Core_0_LLC_wq_to_cache 1593797
Core_0_LLC_wq_full 0

Core_0_LLC_pq_access 0
Core_0_LLC_pq_forward 0
Core_0_LLC_pq_merged 0
Core_0_LLC_pq_to_cache 0
Core_0_LLC_pq_full 0

Core_0_LLC_acc_epochs 686164
Core_0_LLC_acc_level_0 686164
Core_0_LLC_acc_level_1 0
Core_0_LLC_acc_level_2 0
Core_0_LLC_acc_level_3 0
Core_0_LLC_acc_level_4 0
Core_0_LLC_acc_level_5 0
Core_0_LLC_acc_level_6 0
Core_0_LLC_acc_level_7 0
Core_0_LLC_acc_level_8 0
Core_0_LLC_acc_level_9 0

Core_0_major_page_fault 0
Core_0_minor_page_fault 20519

Core_1_instructions 150000002
Core_1_cycles 566754749
Core_1_IPC 0.26466

Core_1_branch_prediction_accuracy 97.44845
Core_1_branch_MPKI 4.37520
Core_1_average_ROB_occupancy_at_mispredict 82.65814

Core_1_L1D_total_access 18085733
Core_1_L1D_total_hit 15601129
Core_1_L1D_total_miss 2484604
Core_1_L1D_loads 10804094
Core_1_L1D_load_hit 8909990
Core_1_L1D_load_miss 1894104
Core_1_L1D_RFOs 7281639
Core_1_L1D_RFO_hit 6691139
Core_1_L1D_RFO_miss 590500
Core_1_L1D_prefetches 0
Core_1_L1D_prefetch_hit 0
Core_1_L1D_prefetch_miss 0
Core_1_L1D_writebacks 0
Core_1_L1D_writeback_hit 0
Core_1_L1D_writeback_miss 0
Core_1_L1D_prefetch_requested 0
Core_1_L1D_prefetch_dropped 0
Core_1_L1D_prefetch_issued 0
Core_1_L1D_prefetch_filled 0
Core_1_L1D_prefetch_useful 0
Core_1_L1D_prefetch_useless 0
Core_1_L1D_prefetch_late 0
Core_1_L1D_average_miss_latency 128.04807

Core_1_L1D_rq_access 28110997
Core_1_L1D_rq_forward 0
Core_1_L1D_rq_merged 13157361
Core_1_L1D_rq_to_cache 14951371
Core_1_L1D_rq_full 0

Core_1_L1D_wq_access 11614211
Core_1_L1D_wq_forward 2265
Core_1_L1D_wq_merged 34235
Core_1_L1D_wq_to_cache 11579976
Core_1_L1D_wq_full 0

Core_1_L1D_pq_access 0
Core_1_L1D_pq_forward 0
Core_1_L1D_pq_merged 0
Core_1_L1D_pq_to_cache 0
Core_1_L1D_pq_full 0

Core_1_L1D_acc_epochs 223949
Core_1_L1D_acc_level_0 223949
Core_1_L1D_acc_level_1 0
Core_1_L1D_acc_level_2 0
Core_1_L1D_acc_level_3 0
Core_1_L1D_acc_level_4 0
Core_1_L1D_acc_level_5 0
Core_1_L1D_acc_level_6 0
Core_1_L1D_acc_level_7 0
Core_1_L1D_acc_level_8 0
Core_1_L1D_acc_level_9 0

Core_1_L1I_total_access 30462461
Core_1_L1I_total_hit 26127525
Core_1_L1I_total_miss 4334936
Core_1_L1I_loads 30462461
Core_1_L1I_load_hit 26127525
Core_1_L1I_load_miss 4334936
Core_1_L1I_RFOs 0
Core_1_L1I_RFO_hit 0
Core_1_L1I_RFO_miss 0
Core_1_L1I_prefetches 0
Core_1_L1I_prefetch_hit 0
Core_1_L1I_prefetch_miss 0
Core_1_L1I_writebacks 0
Core_1_L1I_writeback_hit 0
Core_1_L1I_writeback_miss 0
Core_1_L1I_prefetch_requested 0
Core_1_L1I_prefetch_dropped 0
Core_1_L1I_prefetch_issued 0
Core_1_L1I_prefetch_filled 0
Core_1_L1I_prefetch_useful 0
Core_1_L1I_prefetch_useless 0
Core_1_L1I_prefetch_late 0
Core_1_L1I_average_miss_latency 104.34686

Core_1_L1I_rq_access 172952438
Core_1_L1I_rq_forward 0
Core_1_L1I_rq_merged 134396921
Core_1_L1I_rq_to_cache 38555517
Core_1_L1I_rq_full 0

Core_1_L1I_wq_access 0
Core_1_L1I_wq_forward 0
Core_1_L1I_wq_merged 0
Core_1_L1I_wq_to_cache 0
Core_1_L1I_wq_full 0

Core_1_L1I_pq_access 0
Core_1_L1I_pq_forward 0
Core_1_L1I_pq_merged 0
Core_1_L1I_pq_to_cache 0
Core_1_L1I_pq_full 0

Core_1_L1I_acc_epochs 223949
Core_1_L1I_acc_level_0 223949
Core_1_L1I_acc_level_1 0
Core_1_L1I_acc_level_2 0
Core_1_L1I_acc_level_3 0
Core_1_L1I_acc_level_4 0
Core_1_L1I_acc_level_5 0
Core_1_L1I_acc_level_6 0
Core_1_L1I_acc_level_7 0
Core_1_L1I_acc_level_8 0
Core_1_L1I_acc_level_9 0

Core_1_L2C_total_access 7659053
Core_1_L2C_total_hit 6373138
Core_1_L2C_total_miss 1285915
Core_1_L2C_loads 6228856
Core_1_L2C_load_hit 5212850
Core_1_L2C_load_miss 1016006
Core_1_L2C_RFOs 590240
Core_1_L2C_RFO_hit 327666
Core_1_L2C_RFO_miss 262574
Core_1_L2C_prefetches 0
Core_1_L2C_prefetch_hit 0
Core_1_L2C_prefetch_miss 0
Core_1_L2C_writebacks 839957
Core_1_L2C_writeback_hit 832622
Core_1_L2C_writeback_miss 7335
Core_1_L2C_prefetch_requested 0
Core_1_L2C_prefetch_dropped 0
Core_1_L2C_prefetch_issued 0
Core_1_L2C_prefetch_filled 0
Core_1_L2C_prefetch_useful 0
Core_1_L2C_prefetch_useless 0
Core_1_L2C_prefetch_late 0
Core_1_L2C_average_miss_latency 139.94837

Core_1_L2C_rq_access 8236481
Core_1_L2C_rq_forward 0
Core_1_L2C_rq_merged 0
Core_1_L2C_rq_to_cache 8235955
Core_1_L2C_rq_full 0

Core_1_L2C_wq_access 1016430
Core_1_L2C_wq_forward 526
Core_1_L2C_wq_merged 0
Core_1_L2C_wq_to_cache 1016430
Core_1_L2C_wq_full 0

Core_1_L2C_pq_access 0
Core_1_L2C_pq_forward 0
Core_1_L2C_pq_merged 0
Core_1_L2C_pq_to_cache 0
Core_1_L2C_pq_full 0

Core_1_L2C_acc_epochs 223949
Core_1_L2C_acc_level_0 223949
Core_1_L2C_acc_level_1 0
Core_1_L2C_acc_level_2 0
Core_1_L2C_acc_level_3 0
Core_1_L2C_acc_level_4 0
Core_1_L2C_acc_level_5 0
Core_1_L2C_acc_level_6 0
Core_1_L2C_acc_level_7 0
Core_1_L2C_acc_level_8 0
Core_1_L2C_acc_level_9 0

Core_1_LLC_total_access 1628229
Core_1_LLC_total_hit 865834
Core_1_LLC_total_miss 762395
Core_1_LLC_loads 1016005
Core_1_LLC_load_hit 373549
Core_1_LLC_load_miss 642456
Core_1_LLC_RFOs 262564
Core_1_LLC_RFO_hit 177018
Core_1_LLC_RFO_miss 85546
Core_1_LLC_prefetches 0
Core_1_LLC_prefetch_hit 0
Core_1_LLC_prefetch_miss 0
Core_1_LLC_writebacks 349660
Core_1_LLC_writeback_hit 315267
Core_1_LLC_writeback_miss 34393
Core_1_LLC_prefetch_requested 0
Core_1_LLC_prefetch_dropped 0
Core_1_LLC_prefetch_issued 0
Core_1_LLC_prefetch_filled 0
Core_1_LLC_prefetch_useful 0
Core_1_LLC_prefetch_useless 0
Core_1_LLC_prefetch_late 0
Core_1_LLC_average_miss_latency 528.95157

Core_1_LLC_rq_access 5213172
Core_1_LLC_rq_forward 0
Core_1_LLC_rq_merged 0
Core_1_LLC_rq_to_cache 5213082
Core_1_LLC_rq_full 0

Core_1_LLC_wq_access 1593797
Core_1_LLC_wq_forward 90
Core_1_LLC_wq_merged 0
Core_1_LLC_wq_to_cache 1593797
Core_1_LLC_wq_full 0

Core_1_LLC_pq_access 0
Core_1_LLC_pq_forward 0
Core_1_LLC_pq_merged 0
Core_1_LLC_pq_to_cache 0
Core_1_LLC_pq_full 0

Core_1_LLC_acc_epochs 686164
Core_1_LLC_acc_level_0 686164
Core_1_LLC_acc_level_1 0
Core_1_LLC_acc_level_2 0
Core_1_LLC_acc_level_3 0
Core_1_LLC_acc_level_4 0
Core_1_LLC_acc_level_5 0
Core_1_LLC_acc_level_6 0
Core_1_LLC_acc_level_7 0
Core_1_LLC_acc_level_8 0
Core_1_LLC_acc_level_9 0

Core_1_major_page_fault 0
Core_1_minor_page_fault 20832

Core_2_instructions 150000000
Core_2_cycles 643603582
Core_2_IPC 0.23306

Core_2_branch_prediction_accuracy 97.09359
Core_2_branch_MPKI 4.82803
Core_2_average_ROB_occupancy_at_mispredict 85.30967

Core_2_L1D_total_access 17921712
Core_2_L1D_total_hit 15478884
Core_2_L1D_total_miss 2442828
Core_2_L1D_loads 11220055
Core_2_L1D_load_hit 9322452
Core_2_L1D_load_miss 1897603
Core_2_L1D_RFOs 6701657
Core_2_L1D_RFO_hit 6156432
Core_2_L1D_RFO_miss 545225
Core_2_L1D_prefetches 0
Core_2_L1D_prefetch_hit 0
Core_2_L1D_prefetch_miss 0
Core_2_L1D_writebacks 0
Core_2_L1D_writeback_hit 0
Core_2_L1D_writeback_miss 0
Core_2_L1D_prefetch_requested 0
Core_2_L1D_prefetch_dropped 0
Core_2_L1D_prefetch_issued 0
Core_2_L1D_prefetch_filled 0
Core_2_L1D_prefetch_useful 0
Core_2_L1D_prefetch_useless 0
Core_2_L1D_prefetch_late 0
Core_2_L1D_average_miss_latency 115.76685

Core_2_L1D_rq_access 25776571
Core_2_L1D_rq_forward 0
Core_2_L1D_rq_merged 11604996
Core_2_L1D_rq_to_cache 14167878
Core_2_L1D_rq_full 0

Core_2_L1D_wq_access 8799594
Core_2_L1D_wq_forward 3697
Core_2_L1D_wq_merged 26599
Core_2_L1D_wq_to_cache 8772995
Core_2_L1D_wq_full 0

Core_2_L1D_pq_access 0
Core_2_L1D_pq_forward 0
Core_2_L1D_pq_merged 0
Core_2_L1D_pq_to_cache 0
Core_2_L1D_pq_full 0

Core_2_L1D_acc_epochs 230560
Core_2_L1D_acc_level_0 230560
Core_2_L1D_acc_level_1 0
Core_2_L1D_acc_level_2 0
Core_2_L1D_acc_level_3 0
Core_2_L1D_acc_level_4 0
Core_2_L1D_acc_level_5 0
Core_2_L1D_acc_level_6 0
Core_2_L1D_acc_level_7 0
Core_2_L1D_acc_level_8 0
Core_2_L1D_acc_level_9 0

Core_2_L1I_total_access 28984937
Core_2_L1I_total_hit 25367088
Core_2_L1I_total_miss 3617849
Core_2_L1I_loads 28984937
Core_2_L1I_load_hit 25367088
Core_2_L1I_load_miss 3617849
Core_2_L1I_RFOs 0
Core_2_L1I_RFO_hit 0
Core_2_L1I_RFO_miss 0
Core_2_L1I_prefetches 0
Core_2_L1I_prefetch_hit 0
Core_2_L1I_prefetch_miss 0
Core_2_L1I_writebacks 0
Core_2_L1I_writeback_hit 0
Core_2_L1I_writeback_miss 0
Core_2_L1I_prefetch_requested 0
Core_2_L1I_prefetch_dropped 0
Core_2_L1I_prefetch_issued 0
Core_2_L1I_prefetch_filled 0
Core_2_L1I_prefetch_useful 0
Core_2_L1I_prefetch_useless 0
Core_2_L1I_prefetch_late 0
Core_2_L1I_average_miss_latency 89.95138

Core_2_L1I_rq_access 161048808
Core_2_L1I_rq_forward 0
Core_2_L1I_rq_merged 128054225
Core_2_L1I_rq_to_cache 32994583
Core_2_L1I_rq_full 0

Core_2_L1I_wq_access 0
Core_2_L1I_wq_forward 0
Core_2_L1I_wq_merged 0
Core_2_L1I_wq_to_cache 0
Core_2_L1I_wq_full 0

Core_2_L1I_pq_access 0
Core_2_L1I_pq_forward 0
Core_2_L1I_pq_merged 0
Core_2_L1I_pq_to_cache 0
Core_2_L1I_pq_full 0

Core_2_L1I_acc_epochs 230560
Core_2_L1I_acc_level_0 230560
Core_2_L1I_acc_level_1 0
Core_2_L1I_acc_level_2 0
Core_2_L1I_acc_level_3 0
Core_2_L1I_acc_level_4 0
Core_2_L1I_acc_level_5 0
Core_2_L1I_acc_level_6 0
Core_2_L1I_acc_level_7 0
Core_2_L1I_acc_level_8 0
Core_2_L1I_acc_level_9 0

Core_2_L2C_total_access 6975691
Core_2_L2C_total_hit 5860818
Core_2_L2C_total_miss 1114873
Core_2_L2C_loads 5515222
Core_2_L2C_load_hit 4565666
Core_2_L2C_load_miss 949556
Core_2_L2C_RFOs 544901
Core_2_L2C_RFO_hit 387441
Core_2_L2C_RFO_miss 157460
Core_2_L2C_prefetches 0
Core_2_L2C_prefetch_hit 0
Core_2_L2C_prefetch_miss 0
Core_2_L2C_writebacks 915568
Core_2_L2C_writeback_hit 907711
Core_2_L2C_writeback_miss 7857
Core_2_L2C_prefetch_requested 0
Core_2_L2C_prefetch_dropped 0
Core_2_L2C_prefetch_issued 0
Core_2_L2C_prefetch_filled 0
Core_2_L2C_prefetch_useful 0
Core_2_L2C_prefetch_useless 0
Core_2_L2C_prefetch_late 0
Core_2_L2C_average_miss_latency 140.41959

Core_2_L2C_rq_access 6245374
Core_2_L2C_rq_forward 0
Core_2_L2C_rq_merged 0
Core_2_L2C_rq_to_cache 6244807
Core_2_L2C_rq_full 0

Core_2_L2C_wq_access 940613
Core_2_L2C_wq_forward 567
Core_2_L2C_wq_merged 0
Core_2_L2C_wq_to_cache 940613
Core_2_L2C_wq_full 0

Core_2_L2C_pq_access 0
Core_2_L2C_pq_forward 0
Core_2_L2C_pq_merged 0
Core_2_L2C_pq_to_cache 0
Core_2_L2C_pq_full 0

Core_2_L2C_acc_epochs 230560
Core_2_L2C_acc_level_0 230560
Core_2_L2C_acc_level_1 0
Core_2_L2C_acc_level_2 0
Core_2_L2C_acc_level_3 0
Core_2_L2C_acc_level_4 0
Core_2_L2C_acc_level_5 0
Core_2_L2C_acc_level_6 0
Core_2_L2C_acc_level_7 0
Core_2_L2C_acc_level_8 0
Core_2_L2C_acc_level_9 0

Core_2_LLC_total_access 1378748
Core_2_LLC_total_hit 705703
Core_2_LLC_total_miss 673045
Core_2_LLC_loads 949542
Core_2_LLC_load_hit 350663
Core_2_LLC_load_miss 598879
Core_2_LLC_RFOs 157448
Core_2_LLC_RFO_hit 105111
Core_2_LLC_RFO_miss 52337
Core_2_LLC_prefetches 0
Core_2_LLC_prefetch_hit 0
Core_2_LLC_prefetch_miss 0
Core_2_LLC_writebacks 271758
Core_2_LLC_writeback_hit 249929
Core_2_LLC_writeback_miss 21829
Core_2_LLC_prefetch_requested 0
Core_2_LLC_prefetch_dropped 0
Core_2_LLC_prefetch_issued 0
Core_2_LLC_prefetch_filled 0
Core_2_LLC_prefetch_useful 0
Core_2_LLC_prefetch_useless 0
Core_2_LLC_prefetch_late 0
Core_2_LLC_average_miss_latency 599.17246

Core_2_LLC_rq_access 5213172
Core_2_LLC_rq_forward 0
Core_2_LLC_rq_merged 0
Core_2_LLC_rq_to_cache 5213082
Core_2_LLC_rq_full 0

Core_2_LLC_wq_access 1593797
Core_2_LLC_wq_forward 90
Core_2_LLC_wq_merged 0
Core_2_LLC_wq_to_cache 1593797
Core_2_LLC_wq_full 0

Core_2_LLC_pq_access 0
Core_2_LLC_pq_forward 0
Core_2_LLC_pq_merged 0
Core_2_LLC_pq_to_cache 0
Core_2_LLC_pq_full 0

Core_2_LLC_acc_epochs 686164
Core_2_LLC_acc_level_0 686164
Core_2_LLC_acc_level_1 0
Core_2_LLC_acc_level_2 0
Core_2_LLC_acc_level_3 0
Core_2_LLC_acc_level_4 0
Core_2_LLC_acc_level_5 0
Core_2_LLC_acc_level_6 0
Core_2_LLC_acc_level_7 0
Core_2_LLC_acc_level_8 0
Core_2_LLC_acc_level_9 0

Core_2_major_page_fault 0
Core_2_minor_page_fault 16720

Core_3_instructions 150000001
Core_3_cycles 673167914
Core_3_IPC 0.22283

Core_3_branch_prediction_accuracy 97.10559
Core_3_branch_MPKI 5.16198
Core_3_average_ROB_occupancy_at_mispredict 84.20459

Core_3_L1D_total_access 22785590
Core_3_L1D_total_hit 19917867
Core_3_L1D_total_miss 2867723
Core_3_L1D_loads 13178483
Core_3_L1D_load_hit 11071387
Core_3_L1D_load_miss 2107096
Core_3_L1D_RFOs 9607107
Core_3_L1D_RFO_hit 8846480
Core_3_L1D_RFO_miss 760627
Core_3_L1D_prefetches 0
Core_3_L1D_prefetch_hit 0
Core_3_L1D_prefetch_miss 0
Core_3_L1D_writebacks 0
Core_3_L1D_writeback_hit 0
Core_3_L1D_writeback_miss 0
Core_3_L1D_prefetch_requested 0
Core_3_L1D_prefetch_dropped 0
Core_3_L1D_prefetch_issued 0
Core_3_L1D_prefetch_filled 0
Core_3_L1D_prefetch_useful 0
Core_3_L1D_prefetch_useless 0
Core_3_L1D_prefetch_late 0
Core_3_L1D_average_miss_latency 104.53252

Core_3_L1D_rq_access 26007254
Core_3_L1D_rq_forward 0
Core_3_L1D_rq_merged 11832316
Core_3_L1D_rq_to_cache 14172315
Core_3_L1D_rq_full 0

Core_3_L1D_wq_access 12489507
Core_3_L1D_wq_forward 2623
Core_3_L1D_wq_merged 37341
Core_3_L1D_wq_to_cache 12452166
Core_3_L1D_wq_full 0

Core_3_L1D_pq_access 0
Core_3_L1D_pq_forward 0
Core_3_L1D_pq_merged 0
Core_3_L1D_pq_to_cache 0
Core_3_L1D_pq_full 0

Core_3_L1D_acc_epochs 191098
Core_3_L1D_acc_level_0 191098
Core_3_L1D_acc_level_1 0
Core_3_L1D_acc_level_2 0
Core_3_L1D_acc_level_3 0
Core_3_L1D_acc_level_4 0
Core_3_L1D_acc_level_5 0
Core_3_L1D_acc_level_6 0
Core_3_L1D_acc_level_7 0
Core_3_L1D_acc_level_8 0
Core_3_L1D_acc_level_9 0

Core_3_L1I_total_access 32181828
Core_3_L1I_total_hit 26495307
Core_3_L1I_total_miss 5686521
Core_3_L1I_loads 32181828
Core_3_L1I_load_hit 26495307
Core_3_L1I_load_miss 5686521
Core_3_L1I_RFOs 0
Core_3_L1I_RFO_hit 0
Core_3_L1I_RFO_miss 0
Core_3_L1I_prefetches 0
Core_3_L1I_prefetch_hit 0
Core_3_L1I_prefetch_miss 0
Core_3_L1I_writebacks 0
Core_3_L1I_writeback_hit 0
Core_3_L1I_writeback_miss 0
Core_3_L1I_prefetch_requested 0
Core_3_L1I_prefetch_dropped 0
Core_3_L1I_prefetch_issued 0
Core_3_L1I_prefetch_filled 0
Core_3_L1I_prefetch_useful 0
Core_3_L1I_prefetch_useless 0
Core_3_L1I_prefetch_late 0
Core_3_L1I_average_miss_latency 85.13670

Core_3_L1I_rq_access 151870124
Core_3_L1I_rq_forward 0
Core_3_L1I_rq_merged 116105205
Core_3_L1I_rq_to_cache 35764919
Core_3_L1I_rq_full 0

Core_3_L1I_wq_access 0
Core_3_L1I_wq_forward 0
Core_3_L1I_wq_merged 0
Core_3_L1I_wq_to_cache 0
Core_3_L1I_wq_full 0

Core_3_L1I_pq_access 0
Core_3_L1I_pq_forward 0
Core_3_L1I_pq_merged 0
Core_3_L1I_pq_to_cache 0
Core_3_L1I_pq_full 0

Core_3_L1I_acc_epochs 191098
Core_3_L1I_acc_level_0 191098
Core_3_L1I_acc_level_1 0
Core_3_L1I_acc_level_2 0
Core_3_L1I_acc_level_3 0
Core_3_L1I_acc_level_4 0
Core_3_L1I_acc_level_5 0
Core_3_L1I_acc_level_6 0
Core_3_L1I_acc_level_7 0
Core_3_L1I_acc_level_8 0
Core_3_L1I_acc_level_9 0

Core_3_L2C_total_access 9617227
Core_3_L2C_total_hit 8328243
Core_3_L2C_total_miss 1288984
Core_3_L2C_loads 7793403
Core_3_L2C_load_hit 6852559
Core_3_L2C_load_miss 940844
Core_3_L2C_RFOs 760245
Core_3_L2C_RFO_hit 423317
Core_3_L2C_RFO_miss 336928
Core_3_L2C_prefetches 0
Core_3_L2C_prefetch_hit 0
Core_3_L2C_prefetch_miss 0
Core_3_L2C_writebacks 1063579
Core_3_L2C_writeback_hit 1052367
Core_3_L2C_writeback_miss 11212
Core_3_L2C_prefetch_requested 0
Core_3_L2C_prefetch_dropped 0
Core_3_L2C_prefetch_issued 0
Core_3_L2C_prefetch_filled 0
Core_3_L2C_prefetch_useful 0
Core_3_L2C_prefetch_useless 0
Core_3_L2C_prefetch_late 0
Core_3_L2C_average_miss_latency 121.58357

Core_3_L2C_rq_access 8569707
Core_3_L2C_rq_forward 0
Core_3_L2C_rq_merged 0
Core_3_L2C_rq_to_cache 8569111
Core_3_L2C_rq_full 0

Core_3_L2C_wq_access 1064036
Core_3_L2C_wq_forward 596
Core_3_L2C_wq_merged 0
Core_3_L2C_wq_to_cache 1064036
Core_3_L2C_wq_full 0

Core_3_L2C_pq_access 0
Core_3_L2C_pq_forward 0
Core_3_L2C_pq_merged 0
Core_3_L2C_pq_to_cache 0
Core_3_L2C_pq_full 0

Core_3_L2C_acc_epochs 191098
Core_3_L2C_acc_level_0 191098
Core_3_L2C_acc_level_1 0
Core_3_L2C_acc_level_2 0
Core_3_L2C_acc_level_3 0
Core_3_L2C_acc_level_4 0
Core_3_L2C_acc_level_5 0
Core_3_L2C_acc_level_6 0
Core_3_L2C_acc_level_7 0
Core_3_L2C_acc_level_8 0
Core_3_L2C_acc_level_9 0

Core_3_LLC_total_access 1715368
Core_3_LLC_total_hit 1089604
Core_3_LLC_total_miss 625764
Core_3_LLC_loads 940842
Core_3_LLC_load_hit 477849
Core_3_LLC_load_miss 462993
Core_3_LLC_RFOs 336889
Core_3_LLC_RFO_hit 222129
Core_3_LLC_RFO_miss 114760
Core_3_LLC_prefetches 0
Core_3_LLC_prefetch_hit 0
Core_3_LLC_prefetch_miss 0
Core_3_LLC_writebacks 437637
Core_3_LLC_writeback_hit 389626
Core_3_LLC_writeback_miss 48011
Core_3_LLC_prefetch_requested 0
Core_3_LLC_prefetch_dropped 0
Core_3_LLC_prefetch_issued 0
Core_3_LLC_prefetch_filled 0
Core_3_LLC_prefetch_useful 0
Core_3_LLC_prefetch_useless 0
Core_3_LLC_prefetch_late 0
Core_3_LLC_average_miss_latency 644.44428

Core_3_LLC_rq_access 5213172
Core_3_LLC_rq_forward 0
Core_3_LLC_rq_merged 0
Core_3_LLC_rq_to_cache 5213082
Core_3_LLC_rq_full 0

Core_3_LLC_wq_access 1593797
Core_3_LLC_wq_forward 90
Core_3_LLC_wq_merged 0
Core_3_LLC_wq_to_cache 1593797
Core_3_LLC_wq_full 0

Core_3_LLC_pq_access 0
Core_3_LLC_pq_forward 0
Core_3_LLC_pq_merged 0
Core_3_LLC_pq_to_cache 0
Core_3_LLC_pq_full 0

Core_3_LLC_acc_epochs 686164
Core_3_LLC_acc_level_0 686164
Core_3_LLC_acc_level_1 0
Core_3_LLC_acc_level_2 0
Core_3_LLC_acc_level_3 0
Core_3_LLC_acc_level_4 0
Core_3_LLC_acc_level_5 0
Core_3_LLC_acc_level_6 0
Core_3_LLC_acc_level_7 0
Core_3_LLC_acc_level_8 0
Core_3_LLC_acc_level_9 0

Core_3_major_page_fault 0
Core_3_minor_page_fault 21667

Channel_0_RQ_row_buffer_hit 531483
Channel_0_RQ_row_buffer_miss 806826
Channel_0_WQ_row_buffer_hit 43802
Channel_0_WQ_row_buffer_miss 196422
Channel_0_WQ_full 0
Channel_0_dbus_congested 192851

Channel_1_RQ_row_buffer_hit 531261
Channel_1_RQ_row_buffer_miss 807289
Channel_1_WQ_row_buffer_hit 43409
Channel_1_WQ_row_buffer_miss 195931
Channel_1_WQ_full 0
Channel_1_dbus_congested 191367

avg_congested_cycle 9

DRAM_bw_pochs 2744653
DRAM_bw_level_0 2649120
DRAM_bw_level_1 85685
DRAM_bw_level_2 9346
DRAM_bw_level_3 502
