*************************************************
   ChampSim Multicore Out-of-Order Simulator
   Last compiled: Mar 31 2025 20:14:32
*************************************************
parsing config file: /data3/config/bingo.ini

trace_0 /data3/STREAMING/traces/streaming_phase3_core0.trace.xz
trace_1 /data3/STREAMING/traces/streaming_phase3_core1.trace.xz
trace_2 /data3/STREAMING/traces/streaming_phase3_core2.trace.xz
trace_3 /data3/STREAMING/traces/streaming_phase3_core3.trace.xz
adding L2C_PREFETCHER: Bingo
adding L2C_PREFETCHER: Bingo
adding L2C_PREFETCHER: Bingo
adding L2C_PREFETCHER: Bingo
Initialize SHIP state
warmup_instructions 50000000
simulation_instructions 150000000
champsim_seed 8858
measure_ipc 0
measure_ipc_epoch 1000
measure_dram_bw 1
measure_dram_bw_epoch 256
measure_cache_acc 1
measure_cache_acc_epoch 1024
l1d_perfect 0
l2c_perfect 0
llc_perfect 0
l1d_semi_perfect 0
l2c_semi_perfect 0
llc_semi_perfect 0
semi_perfect_cache_page_buffer_size 64

num_cpus 4
cpu_freq 4000
dram_io_freq 2400
page_size 4096
block_size 64
max_read_per_cycle 8
max_fill_per_cycle 1
dram_channels 2
log2_dram_channels 1
dram_ranks 1
dram_banks 8
dram_rows 65536
dram_columns 128
dram_row_size 8
dram_size 8192
dram_pages 2097152

fetch_width 6
decode_width 6
exec_width 4
lq_width 2
sq_width 2
retire_width 4
scheduler_size 128
branch_mispredict_penalty 20
rob_size 256
lq_size 72
sq_size 56
num_instr_destinations_sparc 4
num_instr_destinations 2
num_instr_sources 4

itlb_set 16
itlb_way 8
itlb_rq_size 16
itlb_wq_size 16
itlb_pq_size 0
itlb_mshr_size 8
itlb_latency 1

dtlb_set 16
dtlb_way 4
dtlb_rq_size 16
dtlb_wq_size 16
dtlb_pq_size 0
dtlb_mshr_size 8
dtlb_latency 1

stlb_set 128
stlb_way 12
stlb_rq_size 32
stlb_wq_size 32
stlb_pq_size 0
stlb_mshr_size 16
stlb_latency 8

l1i_size 32
l1i_set 64
l1i_way 8
l1i_rq_size 64
l1i_wq_size 64
l1i_pq_size 8
l1i_mshr_size 8
l1i_latency 1

l1d_size 32
l1d_set 64
l1d_way 8
l1d_rq_size 64
l1d_wq_size 64
l1d_pq_size 8
l1d_mshr_size 16
l1d_latency 4

l2c_size 256
l2c_set 512
l2c_way 8
l2c_rq_size 32
l2c_wq_size 32
l2c_pq_size 32
l2c_mshr_size 32
l2c_latency 10

llc_size 8192
llc_set 8192
llc_way 16
llc_rq_size 128
llc_wq_size 128
llc_pq_size 128
llc_mshr_size 256
llc_latency 20

dram_channel_width 8
dram_wq_size 64
dram_rq_size 64
tRP 15
tRCD 15
tCAS 12.5
dram_dbus_turn_around_time 30
dram_write_high_wm 56
dram_write_low_wm 48
min_dram_writes_per_switch 16
dram_mtps 2400
dram_dbus_return_time 13

bingo_region_size 2048
bingo_pattern_len 32
bingo_pc_width 16
bingo_min_addr_width 5
bingo_max_addr_width 16
bingo_ft_size 64
bingo_at_size 128
bingo_pht_size 4096
bingo_pht_ways 16
bingo_pf_streamer_size 128
bingo_debug_level 0
bingo_l1d_thresh 1.01
bingo_l2c_thresh 0.8
bingo_llc_thresh 0.05
bingo_pc_address_fill_level L2


Heartbeat CPU  3 instructions:    1000000 cycles:     641203 heartbeat IPC: 1.55957 cumulative IPC: 1.55957 (Simulation time: 0 hr 0 min 6 sec) 
Heartbeat CPU  0 instructions:    1000000 cycles:     657185 heartbeat IPC: 1.52164 cumulative IPC: 1.52164 (Simulation time: 0 hr 0 min 6 sec) 
Heartbeat CPU  1 instructions:    1000001 cycles:     673971 heartbeat IPC: 1.48374 cumulative IPC: 1.48374 (Simulation time: 0 hr 0 min 7 sec) 
Heartbeat CPU  2 instructions:    1000000 cycles:     762779 heartbeat IPC: 1.31100 cumulative IPC: 1.31100 (Simulation time: 0 hr 0 min 8 sec) 
Heartbeat CPU  3 instructions:    2000000 cycles:    1209481 heartbeat IPC: 1.75970 cumulative IPC: 1.65360 (Simulation time: 0 hr 0 min 13 sec) 
Heartbeat CPU  1 instructions:    2000001 cycles:    1221830 heartbeat IPC: 1.82529 cumulative IPC: 1.63689 (Simulation time: 0 hr 0 min 13 sec) 
Heartbeat CPU  0 instructions:    2000002 cycles:    1224613 heartbeat IPC: 1.76234 cumulative IPC: 1.63317 (Simulation time: 0 hr 0 min 13 sec) 
Heartbeat CPU  2 instructions:    2000002 cycles:    1396561 heartbeat IPC: 1.57783 cumulative IPC: 1.43209 (Simulation time: 0 hr 0 min 15 sec) 
Heartbeat CPU  1 instructions:    3000003 cycles:    1744140 heartbeat IPC: 1.91458 cumulative IPC: 1.72005 (Simulation time: 0 hr 0 min 20 sec) 
Heartbeat CPU  3 instructions:    3000002 cycles:    1752570 heartbeat IPC: 1.84132 cumulative IPC: 1.71177 (Simulation time: 0 hr 0 min 20 sec) 
Heartbeat CPU  0 instructions:    3000002 cycles:    1774308 heartbeat IPC: 1.81919 cumulative IPC: 1.69080 (Simulation time: 0 hr 0 min 20 sec) 
Heartbeat CPU  2 instructions:    3000002 cycles:    2018419 heartbeat IPC: 1.60808 cumulative IPC: 1.48631 (Simulation time: 0 hr 0 min 23 sec) 
Heartbeat CPU  1 instructions:    4000000 cycles:    2274989 heartbeat IPC: 1.88377 cumulative IPC: 1.75825 (Simulation time: 0 hr 0 min 26 sec) 
Heartbeat CPU  3 instructions:    4000000 cycles:    2290668 heartbeat IPC: 1.85839 cumulative IPC: 1.74622 (Simulation time: 0 hr 0 min 26 sec) 
Heartbeat CPU  0 instructions:    4000000 cycles:    2322420 heartbeat IPC: 1.82444 cumulative IPC: 1.72234 (Simulation time: 0 hr 0 min 27 sec) 
Heartbeat CPU  2 instructions:    4000000 cycles:    2628612 heartbeat IPC: 1.63882 cumulative IPC: 1.52172 (Simulation time: 0 hr 0 min 31 sec) 
Heartbeat CPU  1 instructions:    5000000 cycles:    2811284 heartbeat IPC: 1.86465 cumulative IPC: 1.77855 (Simulation time: 0 hr 0 min 33 sec) 
Heartbeat CPU  3 instructions:    5000003 cycles:    2817652 heartbeat IPC: 1.89760 cumulative IPC: 1.77453 (Simulation time: 0 hr 0 min 33 sec) 
Heartbeat CPU  0 instructions:    5000000 cycles:    2843844 heartbeat IPC: 1.91782 cumulative IPC: 1.75818 (Simulation time: 0 hr 0 min 34 sec) 
Heartbeat CPU  2 instructions:    5000000 cycles:    3220397 heartbeat IPC: 1.68980 cumulative IPC: 1.55260 (Simulation time: 0 hr 0 min 39 sec) 
Heartbeat CPU  3 instructions:    6000003 cycles:    3309753 heartbeat IPC: 2.03210 cumulative IPC: 1.81282 (Simulation time: 0 hr 0 min 40 sec) 
Heartbeat CPU  0 instructions:    6000000 cycles:    3349423 heartbeat IPC: 1.97793 cumulative IPC: 1.79135 (Simulation time: 0 hr 0 min 40 sec) 
Heartbeat CPU  1 instructions:    6000001 cycles:    3355004 heartbeat IPC: 1.83918 cumulative IPC: 1.78837 (Simulation time: 0 hr 0 min 40 sec) 
Heartbeat CPU  2 instructions:    6000003 cycles:    3813413 heartbeat IPC: 1.68630 cumulative IPC: 1.57339 (Simulation time: 0 hr 0 min 47 sec) 
Heartbeat CPU  3 instructions:    7000002 cycles:    3817312 heartbeat IPC: 1.97021 cumulative IPC: 1.83375 (Simulation time: 0 hr 0 min 47 sec) 
Heartbeat CPU  0 instructions:    7000003 cycles:    3862555 heartbeat IPC: 1.94882 cumulative IPC: 1.81227 (Simulation time: 0 hr 0 min 47 sec) 
Heartbeat CPU  1 instructions:    7000001 cycles:    3892590 heartbeat IPC: 1.86017 cumulative IPC: 1.79829 (Simulation time: 0 hr 0 min 48 sec) 
Heartbeat CPU  3 instructions:    8000000 cycles:    4331138 heartbeat IPC: 1.94618 cumulative IPC: 1.84709 (Simulation time: 0 hr 0 min 53 sec) 
Heartbeat CPU  0 instructions:    8000000 cycles:    4384480 heartbeat IPC: 1.91598 cumulative IPC: 1.82462 (Simulation time: 0 hr 0 min 54 sec) 
Heartbeat CPU  1 instructions:    8000000 cycles:    4418654 heartbeat IPC: 1.90091 cumulative IPC: 1.81051 (Simulation time: 0 hr 0 min 55 sec) 
Heartbeat CPU  2 instructions:    7000001 cycles:    4435069 heartbeat IPC: 1.60860 cumulative IPC: 1.57833 (Simulation time: 0 hr 0 min 55 sec) 
Heartbeat CPU  3 instructions:    9000002 cycles:    4849299 heartbeat IPC: 1.92991 cumulative IPC: 1.85594 (Simulation time: 0 hr 1 min 0 sec) 
Heartbeat CPU  0 instructions:    9000003 cycles:    4938192 heartbeat IPC: 1.80600 cumulative IPC: 1.82253 (Simulation time: 0 hr 1 min 1 sec) 
Heartbeat CPU  1 instructions:    9000001 cycles:    4950159 heartbeat IPC: 1.88145 cumulative IPC: 1.81812 (Simulation time: 0 hr 1 min 1 sec) 
Heartbeat CPU  2 instructions:    8000000 cycles:    5041108 heartbeat IPC: 1.65006 cumulative IPC: 1.58695 (Simulation time: 0 hr 1 min 2 sec) 
Heartbeat CPU  3 instructions:   10000001 cycles:    5392620 heartbeat IPC: 1.84053 cumulative IPC: 1.85439 (Simulation time: 0 hr 1 min 7 sec) 
Heartbeat CPU  0 instructions:   10000002 cycles:    5473035 heartbeat IPC: 1.86971 cumulative IPC: 1.82714 (Simulation time: 0 hr 1 min 8 sec) 
Heartbeat CPU  1 instructions:   10000001 cycles:    5488198 heartbeat IPC: 1.85860 cumulative IPC: 1.82209 (Simulation time: 0 hr 1 min 8 sec) 
Heartbeat CPU  2 instructions:    9000000 cycles:    5607380 heartbeat IPC: 1.76594 cumulative IPC: 1.60503 (Simulation time: 0 hr 1 min 10 sec) 
Heartbeat CPU  3 instructions:   11000002 cycles:    5934505 heartbeat IPC: 1.84541 cumulative IPC: 1.85357 (Simulation time: 0 hr 1 min 14 sec) 
Heartbeat CPU  0 instructions:   11000000 cycles:    5943394 heartbeat IPC: 2.12603 cumulative IPC: 1.85079 (Simulation time: 0 hr 1 min 15 sec) 
Heartbeat CPU  1 instructions:   11000000 cycles:    6009595 heartbeat IPC: 1.91792 cumulative IPC: 1.83041 (Simulation time: 0 hr 1 min 16 sec) 
Heartbeat CPU  2 instructions:   10000003 cycles:    6169004 heartbeat IPC: 1.78056 cumulative IPC: 1.62101 (Simulation time: 0 hr 1 min 18 sec) 
Heartbeat CPU  3 instructions:   12000000 cycles:    6448786 heartbeat IPC: 1.94446 cumulative IPC: 1.86082 (Simulation time: 0 hr 1 min 22 sec) 
Heartbeat CPU  0 instructions:   12000000 cycles:    6457809 heartbeat IPC: 1.94396 cumulative IPC: 1.85822 (Simulation time: 0 hr 1 min 22 sec) 
Heartbeat CPU  2 instructions:   11000003 cycles:    6488844 heartbeat IPC: 3.12656 cumulative IPC: 1.69522 (Simulation time: 0 hr 1 min 23 sec) 
Heartbeat CPU  1 instructions:   12000000 cycles:    6500294 heartbeat IPC: 2.03791 cumulative IPC: 1.84607 (Simulation time: 0 hr 1 min 23 sec) 
Heartbeat CPU  2 instructions:   12000000 cycles:    6996482 heartbeat IPC: 1.96990 cumulative IPC: 1.71515 (Simulation time: 0 hr 1 min 30 sec) 
Heartbeat CPU  0 instructions:   13000003 cycles:    6999605 heartbeat IPC: 1.84572 cumulative IPC: 1.85725 (Simulation time: 0 hr 1 min 30 sec) 
Heartbeat CPU  1 instructions:   13000000 cycles:    6999752 heartbeat IPC: 2.00217 cumulative IPC: 1.85721 (Simulation time: 0 hr 1 min 30 sec) 
Heartbeat CPU  3 instructions:   13000000 cycles:    7000813 heartbeat IPC: 1.81151 cumulative IPC: 1.85693 (Simulation time: 0 hr 1 min 30 sec) 
Heartbeat CPU  3 instructions:   14000003 cycles:    7534683 heartbeat IPC: 1.87312 cumulative IPC: 1.85807 (Simulation time: 0 hr 1 min 37 sec) 
Heartbeat CPU  0 instructions:   14000003 cycles:    7536022 heartbeat IPC: 1.86422 cumulative IPC: 1.85774 (Simulation time: 0 hr 1 min 37 sec) 
Heartbeat CPU  1 instructions:   14000001 cycles:    7542127 heartbeat IPC: 1.84374 cumulative IPC: 1.85624 (Simulation time: 0 hr 1 min 37 sec) 
Heartbeat CPU  2 instructions:   13000001 cycles:    7559010 heartbeat IPC: 1.77769 cumulative IPC: 1.71980 (Simulation time: 0 hr 1 min 37 sec) 
Heartbeat CPU  0 instructions:   15000001 cycles:    8050102 heartbeat IPC: 1.94522 cumulative IPC: 1.86333 (Simulation time: 0 hr 1 min 43 sec) 
Heartbeat CPU  1 instructions:   15000003 cycles:    8077814 heartbeat IPC: 1.86677 cumulative IPC: 1.85694 (Simulation time: 0 hr 1 min 44 sec) 
Heartbeat CPU  3 instructions:   15000003 cycles:    8104489 heartbeat IPC: 1.75498 cumulative IPC: 1.85083 (Simulation time: 0 hr 1 min 44 sec) 
Heartbeat CPU  2 instructions:   14000002 cycles:    8138868 heartbeat IPC: 1.72456 cumulative IPC: 1.72014 (Simulation time: 0 hr 1 min 44 sec) 
Heartbeat CPU  0 instructions:   16000000 cycles:    8583035 heartbeat IPC: 1.87641 cumulative IPC: 1.86414 (Simulation time: 0 hr 1 min 50 sec) 
Heartbeat CPU  1 instructions:   16000000 cycles:    8620043 heartbeat IPC: 1.84423 cumulative IPC: 1.85614 (Simulation time: 0 hr 1 min 51 sec) 
Heartbeat CPU  3 instructions:   16000000 cycles:    8640931 heartbeat IPC: 1.86413 cumulative IPC: 1.85165 (Simulation time: 0 hr 1 min 51 sec) 
Heartbeat CPU  2 instructions:   15000002 cycles:    8702221 heartbeat IPC: 1.77509 cumulative IPC: 1.72370 (Simulation time: 0 hr 1 min 52 sec) 
Heartbeat CPU  0 instructions:   17000001 cycles:    9085855 heartbeat IPC: 1.98879 cumulative IPC: 1.87104 (Simulation time: 0 hr 1 min 57 sec) 
Heartbeat CPU  1 instructions:   17000003 cycles:    9164124 heartbeat IPC: 1.83797 cumulative IPC: 1.85506 (Simulation time: 0 hr 1 min 58 sec) 
Heartbeat CPU  3 instructions:   17000002 cycles:    9186850 heartbeat IPC: 1.83178 cumulative IPC: 1.85047 (Simulation time: 0 hr 1 min 58 sec) 
Heartbeat CPU  2 instructions:   16000000 cycles:    9256779 heartbeat IPC: 1.80323 cumulative IPC: 1.72846 (Simulation time: 0 hr 1 min 59 sec) 
Heartbeat CPU  0 instructions:   18000001 cycles:    9631602 heartbeat IPC: 1.83235 cumulative IPC: 1.86885 (Simulation time: 0 hr 2 min 4 sec) 
Heartbeat CPU  1 instructions:   18000001 cycles:    9686234 heartbeat IPC: 1.91530 cumulative IPC: 1.85831 (Simulation time: 0 hr 2 min 5 sec) 
Heartbeat CPU  3 instructions:   18000001 cycles:    9702682 heartbeat IPC: 1.93861 cumulative IPC: 1.85516 (Simulation time: 0 hr 2 min 5 sec) 
Heartbeat CPU  2 instructions:   17000002 cycles:    9802681 heartbeat IPC: 1.83183 cumulative IPC: 1.73422 (Simulation time: 0 hr 2 min 6 sec) 
Heartbeat CPU  0 instructions:   19000002 cycles:   10141486 heartbeat IPC: 1.96123 cumulative IPC: 1.87349 (Simulation time: 0 hr 2 min 11 sec) 
Heartbeat CPU  1 instructions:   19000000 cycles:   10219447 heartbeat IPC: 1.87542 cumulative IPC: 1.85920 (Simulation time: 0 hr 2 min 12 sec) 
Heartbeat CPU  3 instructions:   19000000 cycles:   10243111 heartbeat IPC: 1.85038 cumulative IPC: 1.85491 (Simulation time: 0 hr 2 min 12 sec) 
Heartbeat CPU  2 instructions:   18000003 cycles:   10360661 heartbeat IPC: 1.79218 cumulative IPC: 1.73734 (Simulation time: 0 hr 2 min 14 sec) 
Heartbeat CPU  0 instructions:   20000000 cycles:   10647473 heartbeat IPC: 1.97633 cumulative IPC: 1.87838 (Simulation time: 0 hr 2 min 18 sec) 
Heartbeat CPU  1 instructions:   20000000 cycles:   10726390 heartbeat IPC: 1.97261 cumulative IPC: 1.86456 (Simulation time: 0 hr 2 min 19 sec) 
Heartbeat CPU  3 instructions:   20000000 cycles:   10782451 heartbeat IPC: 1.85412 cumulative IPC: 1.85487 (Simulation time: 0 hr 2 min 19 sec) 
Heartbeat CPU  2 instructions:   19000000 cycles:   10900766 heartbeat IPC: 1.85149 cumulative IPC: 1.74300 (Simulation time: 0 hr 2 min 21 sec) 
Heartbeat CPU  0 instructions:   21000003 cycles:   11228770 heartbeat IPC: 1.72030 cumulative IPC: 1.87020 (Simulation time: 0 hr 2 min 25 sec) 
Heartbeat CPU  1 instructions:   21000003 cycles:   11257896 heartbeat IPC: 1.88145 cumulative IPC: 1.86536 (Simulation time: 0 hr 2 min 25 sec) 
Heartbeat CPU  3 instructions:   21000001 cycles:   11418828 heartbeat IPC: 1.57140 cumulative IPC: 1.83907 (Simulation time: 0 hr 2 min 27 sec) 
Heartbeat CPU  2 instructions:   20000000 cycles:   11465296 heartbeat IPC: 1.77139 cumulative IPC: 1.74439 (Simulation time: 0 hr 2 min 28 sec) 
Heartbeat CPU  0 instructions:   22000002 cycles:   11740554 heartbeat IPC: 1.95395 cumulative IPC: 1.87385 (Simulation time: 0 hr 2 min 32 sec) 
Heartbeat CPU  1 instructions:   22000001 cycles:   11780793 heartbeat IPC: 1.91242 cumulative IPC: 1.86745 (Simulation time: 0 hr 2 min 32 sec) 
Heartbeat CPU  3 instructions:   22000003 cycles:   11932946 heartbeat IPC: 1.94508 cumulative IPC: 1.84364 (Simulation time: 0 hr 2 min 34 sec) 
Heartbeat CPU  2 instructions:   21000002 cycles:   12019418 heartbeat IPC: 1.80466 cumulative IPC: 1.74717 (Simulation time: 0 hr 2 min 35 sec) 
Heartbeat CPU  0 instructions:   23000000 cycles:   12278423 heartbeat IPC: 1.85919 cumulative IPC: 1.87320 (Simulation time: 0 hr 2 min 39 sec) 
Heartbeat CPU  1 instructions:   23000000 cycles:   12421226 heartbeat IPC: 1.56144 cumulative IPC: 1.85167 (Simulation time: 0 hr 2 min 40 sec) 
Heartbeat CPU  3 instructions:   23000000 cycles:   12467590 heartbeat IPC: 1.87040 cumulative IPC: 1.84478 (Simulation time: 0 hr 2 min 41 sec) 
Heartbeat CPU  2 instructions:   22000002 cycles:   12586084 heartbeat IPC: 1.76471 cumulative IPC: 1.74796 (Simulation time: 0 hr 2 min 43 sec) 
Heartbeat CPU  0 instructions:   24000000 cycles:   12841383 heartbeat IPC: 1.77633 cumulative IPC: 1.86896 (Simulation time: 0 hr 2 min 46 sec) 
Heartbeat CPU  1 instructions:   24000000 cycles:   12954929 heartbeat IPC: 1.87370 cumulative IPC: 1.85258 (Simulation time: 0 hr 2 min 47 sec) 
Heartbeat CPU  3 instructions:   24000000 cycles:   12992373 heartbeat IPC: 1.90555 cumulative IPC: 1.84724 (Simulation time: 0 hr 2 min 48 sec) 
Heartbeat CPU  2 instructions:   23000000 cycles:   13166519 heartbeat IPC: 1.72284 cumulative IPC: 1.74686 (Simulation time: 0 hr 2 min 50 sec) 
Heartbeat CPU  0 instructions:   25000002 cycles:   13401401 heartbeat IPC: 1.78566 cumulative IPC: 1.86548 (Simulation time: 0 hr 2 min 53 sec) 
Heartbeat CPU  1 instructions:   25000000 cycles:   13487026 heartbeat IPC: 1.87936 cumulative IPC: 1.85363 (Simulation time: 0 hr 2 min 54 sec) 
Heartbeat CPU  3 instructions:   25000003 cycles:   13554400 heartbeat IPC: 1.77928 cumulative IPC: 1.84442 (Simulation time: 0 hr 2 min 55 sec) 
Heartbeat CPU  2 instructions:   24000000 cycles:   13712426 heartbeat IPC: 1.83181 cumulative IPC: 1.75024 (Simulation time: 0 hr 2 min 57 sec) 
Heartbeat CPU  0 instructions:   26000002 cycles:   13932720 heartbeat IPC: 1.88211 cumulative IPC: 1.86611 (Simulation time: 0 hr 3 min 0 sec) 
Heartbeat CPU  1 instructions:   26000000 cycles:   14014795 heartbeat IPC: 1.89477 cumulative IPC: 1.85518 (Simulation time: 0 hr 3 min 1 sec) 
Heartbeat CPU  3 instructions:   26000001 cycles:   14080069 heartbeat IPC: 1.90233 cumulative IPC: 1.84658 (Simulation time: 0 hr 3 min 2 sec) 
Heartbeat CPU  2 instructions:   25000000 cycles:   14289366 heartbeat IPC: 1.73328 cumulative IPC: 1.74955 (Simulation time: 0 hr 3 min 5 sec) 
Heartbeat CPU  0 instructions:   27000000 cycles:   14459615 heartbeat IPC: 1.89791 cumulative IPC: 1.86727 (Simulation time: 0 hr 3 min 7 sec) 
Heartbeat CPU  1 instructions:   27000000 cycles:   14521754 heartbeat IPC: 1.97255 cumulative IPC: 1.85928 (Simulation time: 0 hr 3 min 8 sec) 
Heartbeat CPU  3 instructions:   27000003 cycles:   14614117 heartbeat IPC: 1.87249 cumulative IPC: 1.84753 (Simulation time: 0 hr 3 min 9 sec) 
Heartbeat CPU  2 instructions:   26000001 cycles:   14862843 heartbeat IPC: 1.74375 cumulative IPC: 1.74933 (Simulation time: 0 hr 3 min 12 sec) 
Heartbeat CPU  0 instructions:   28000000 cycles:   14974736 heartbeat IPC: 1.94129 cumulative IPC: 1.86982 (Simulation time: 0 hr 3 min 14 sec) 
Heartbeat CPU  1 instructions:   28000000 cycles:   15025314 heartbeat IPC: 1.98586 cumulative IPC: 1.86352 (Simulation time: 0 hr 3 min 15 sec) 
Heartbeat CPU  3 instructions:   28000000 cycles:   15119350 heartbeat IPC: 1.97928 cumulative IPC: 1.85193 (Simulation time: 0 hr 3 min 16 sec) 
Heartbeat CPU  2 instructions:   27000000 cycles:   15441678 heartbeat IPC: 1.72761 cumulative IPC: 1.74851 (Simulation time: 0 hr 3 min 20 sec) 
Heartbeat CPU  0 instructions:   29000001 cycles:   15473546 heartbeat IPC: 2.00477 cumulative IPC: 1.87417 (Simulation time: 0 hr 3 min 21 sec) 
Heartbeat CPU  1 instructions:   29000002 cycles:   15533085 heartbeat IPC: 1.96940 cumulative IPC: 1.86698 (Simulation time: 0 hr 3 min 21 sec) 
Heartbeat CPU  3 instructions:   29000003 cycles:   15628071 heartbeat IPC: 1.96572 cumulative IPC: 1.85564 (Simulation time: 0 hr 3 min 23 sec) 
Heartbeat CPU  0 instructions:   30000002 cycles:   15989356 heartbeat IPC: 1.93870 cumulative IPC: 1.87625 (Simulation time: 0 hr 3 min 28 sec) 
Heartbeat CPU  2 instructions:   28000000 cycles:   15999804 heartbeat IPC: 1.79171 cumulative IPC: 1.75002 (Simulation time: 0 hr 3 min 28 sec) 
Heartbeat CPU  1 instructions:   30000002 cycles:   16047273 heartbeat IPC: 1.94481 cumulative IPC: 1.86948 (Simulation time: 0 hr 3 min 29 sec) 
Heartbeat CPU  3 instructions:   30000000 cycles:   16150488 heartbeat IPC: 1.91417 cumulative IPC: 1.85753 (Simulation time: 0 hr 3 min 30 sec) 
Heartbeat CPU  0 instructions:   31000000 cycles:   16488874 heartbeat IPC: 2.00193 cumulative IPC: 1.88006 (Simulation time: 0 hr 3 min 35 sec) 
Heartbeat CPU  2 instructions:   29000001 cycles:   16535576 heartbeat IPC: 1.86647 cumulative IPC: 1.75379 (Simulation time: 0 hr 3 min 35 sec) 
Heartbeat CPU  1 instructions:   31000003 cycles:   16575114 heartbeat IPC: 1.89451 cumulative IPC: 1.87027 (Simulation time: 0 hr 3 min 36 sec) 
Heartbeat CPU  3 instructions:   31000002 cycles:   16658431 heartbeat IPC: 1.96873 cumulative IPC: 1.86092 (Simulation time: 0 hr 3 min 37 sec) 
Heartbeat CPU  2 instructions:   30000001 cycles:   17114172 heartbeat IPC: 1.72832 cumulative IPC: 1.75293 (Simulation time: 0 hr 3 min 43 sec) 
Heartbeat CPU  1 instructions:   32000000 cycles:   17116944 heartbeat IPC: 1.84559 cumulative IPC: 1.86949 (Simulation time: 0 hr 3 min 43 sec) 
Heartbeat CPU  0 instructions:   32000000 cycles:   17130205 heartbeat IPC: 1.55926 cumulative IPC: 1.86805 (Simulation time: 0 hr 3 min 43 sec) 
Heartbeat CPU  3 instructions:   32000000 cycles:   17164060 heartbeat IPC: 1.97773 cumulative IPC: 1.86436 (Simulation time: 0 hr 3 min 43 sec) 
Heartbeat CPU  0 instructions:   33000000 cycles:   17637369 heartbeat IPC: 1.97175 cumulative IPC: 1.87103 (Simulation time: 0 hr 3 min 50 sec) 
Heartbeat CPU  1 instructions:   33000003 cycles:   17643427 heartbeat IPC: 1.89940 cumulative IPC: 1.87039 (Simulation time: 0 hr 3 min 50 sec) 
Heartbeat CPU  2 instructions:   31000001 cycles:   17681048 heartbeat IPC: 1.76405 cumulative IPC: 1.75329 (Simulation time: 0 hr 3 min 50 sec) 
Heartbeat CPU  3 instructions:   33000001 cycles:   17708591 heartbeat IPC: 1.83644 cumulative IPC: 1.86350 (Simulation time: 0 hr 3 min 51 sec) 
Heartbeat CPU  0 instructions:   34000003 cycles:   18134014 heartbeat IPC: 2.01352 cumulative IPC: 1.87493 (Simulation time: 0 hr 3 min 57 sec) 
Heartbeat CPU  1 instructions:   34000003 cycles:   18155802 heartbeat IPC: 1.95170 cumulative IPC: 1.87268 (Simulation time: 0 hr 3 min 57 sec) 
Heartbeat CPU  3 instructions:   34000000 cycles:   18201814 heartbeat IPC: 2.02748 cumulative IPC: 1.86795 (Simulation time: 0 hr 3 min 58 sec) 
Heartbeat CPU  2 instructions:   32000000 cycles:   18268550 heartbeat IPC: 1.70212 cumulative IPC: 1.75164 (Simulation time: 0 hr 3 min 59 sec) 
Heartbeat CPU  0 instructions:   35000003 cycles:   18642912 heartbeat IPC: 1.96503 cumulative IPC: 1.87739 (Simulation time: 0 hr 4 min 4 sec) 
Heartbeat CPU  1 instructions:   35000003 cycles:   18669743 heartbeat IPC: 1.94575 cumulative IPC: 1.87469 (Simulation time: 0 hr 4 min 4 sec) 
Heartbeat CPU  3 instructions:   35000000 cycles:   18724231 heartbeat IPC: 1.91418 cumulative IPC: 1.86924 (Simulation time: 0 hr 4 min 5 sec) 
Heartbeat CPU  2 instructions:   33000001 cycles:   18806977 heartbeat IPC: 1.85726 cumulative IPC: 1.75467 (Simulation time: 0 hr 4 min 6 sec) 
Heartbeat CPU  1 instructions:   36000000 cycles:   19158141 heartbeat IPC: 2.04750 cumulative IPC: 1.87910 (Simulation time: 0 hr 4 min 11 sec) 
Heartbeat CPU  0 instructions:   36000000 cycles:   19160988 heartbeat IPC: 1.93021 cumulative IPC: 1.87882 (Simulation time: 0 hr 4 min 11 sec) 
Heartbeat CPU  3 instructions:   36000000 cycles:   19228726 heartbeat IPC: 1.98218 cumulative IPC: 1.87220 (Simulation time: 0 hr 4 min 12 sec) 
Heartbeat CPU  2 instructions:   34000003 cycles:   19414857 heartbeat IPC: 1.64506 cumulative IPC: 1.75124 (Simulation time: 0 hr 4 min 15 sec) 
Heartbeat CPU  0 instructions:   37000000 cycles:   19682576 heartbeat IPC: 1.91722 cumulative IPC: 1.87984 (Simulation time: 0 hr 4 min 18 sec) 
Heartbeat CPU  1 instructions:   37000003 cycles:   19687125 heartbeat IPC: 1.89042 cumulative IPC: 1.87940 (Simulation time: 0 hr 4 min 18 sec) 
Heartbeat CPU  3 instructions:   37000003 cycles:   19769202 heartbeat IPC: 1.85023 cumulative IPC: 1.87160 (Simulation time: 0 hr 4 min 19 sec) 
Heartbeat CPU  2 instructions:   35000000 cycles:   19997289 heartbeat IPC: 1.71693 cumulative IPC: 1.75024 (Simulation time: 0 hr 4 min 22 sec) 
Heartbeat CPU  0 instructions:   38000003 cycles:   20212644 heartbeat IPC: 1.88656 cumulative IPC: 1.88001 (Simulation time: 0 hr 4 min 26 sec) 
Heartbeat CPU  1 instructions:   38000003 cycles:   20214620 heartbeat IPC: 1.89575 cumulative IPC: 1.87983 (Simulation time: 0 hr 4 min 26 sec) 
Heartbeat CPU  3 instructions:   38000000 cycles:   20274829 heartbeat IPC: 1.97774 cumulative IPC: 1.87425 (Simulation time: 0 hr 4 min 26 sec) 
Heartbeat CPU  2 instructions:   36000000 cycles:   20555530 heartbeat IPC: 1.79134 cumulative IPC: 1.75135 (Simulation time: 0 hr 4 min 30 sec) 
Heartbeat CPU  1 instructions:   39000001 cycles:   20712405 heartbeat IPC: 2.00890 cumulative IPC: 1.88293 (Simulation time: 0 hr 4 min 33 sec) 
Heartbeat CPU  0 instructions:   39000003 cycles:   20733414 heartbeat IPC: 1.92023 cumulative IPC: 1.88102 (Simulation time: 0 hr 4 min 33 sec) 
Heartbeat CPU  3 instructions:   39000001 cycles:   20778781 heartbeat IPC: 1.98432 cumulative IPC: 1.87691 (Simulation time: 0 hr 4 min 34 sec) 
Heartbeat CPU  2 instructions:   37000001 cycles:   21111942 heartbeat IPC: 1.79723 cumulative IPC: 1.75256 (Simulation time: 0 hr 4 min 38 sec) 
Heartbeat CPU  0 instructions:   40000000 cycles:   21245872 heartbeat IPC: 1.95137 cumulative IPC: 1.88272 (Simulation time: 0 hr 4 min 40 sec) 
Heartbeat CPU  1 instructions:   40000000 cycles:   21260689 heartbeat IPC: 1.82387 cumulative IPC: 1.88141 (Simulation time: 0 hr 4 min 40 sec) 
Heartbeat CPU  3 instructions:   40000000 cycles:   21288480 heartbeat IPC: 1.96194 cumulative IPC: 1.87895 (Simulation time: 0 hr 4 min 40 sec) 
Heartbeat CPU  2 instructions:   38000000 cycles:   21695681 heartbeat IPC: 1.71309 cumulative IPC: 1.75150 (Simulation time: 0 hr 4 min 46 sec) 
Heartbeat CPU  1 instructions:   41000001 cycles:   21780809 heartbeat IPC: 1.92264 cumulative IPC: 1.88239 (Simulation time: 0 hr 4 min 47 sec) 
Heartbeat CPU  0 instructions:   41000000 cycles:   21797336 heartbeat IPC: 1.81335 cumulative IPC: 1.88096 (Simulation time: 0 hr 4 min 47 sec) 
Heartbeat CPU  3 instructions:   41000002 cycles:   21804030 heartbeat IPC: 1.93968 cumulative IPC: 1.88039 (Simulation time: 0 hr 4 min 47 sec) 
Heartbeat CPU  2 instructions:   39000000 cycles:   22266467 heartbeat IPC: 1.75197 cumulative IPC: 1.75151 (Simulation time: 0 hr 4 min 52 sec) 
Heartbeat CPU  1 instructions:   42000000 cycles:   22288789 heartbeat IPC: 1.96858 cumulative IPC: 1.88436 (Simulation time: 0 hr 4 min 53 sec) 
Heartbeat CPU  0 instructions:   42000002 cycles:   22392183 heartbeat IPC: 1.68111 cumulative IPC: 1.87565 (Simulation time: 0 hr 4 min 54 sec) 
Heartbeat CPU  3 instructions:   42000002 cycles:   22500849 heartbeat IPC: 1.43509 cumulative IPC: 1.86660 (Simulation time: 0 hr 4 min 55 sec) 
Heartbeat CPU  1 instructions:   43000003 cycles:   22800321 heartbeat IPC: 1.95492 cumulative IPC: 1.88594 (Simulation time: 0 hr 4 min 59 sec) 
Heartbeat CPU  2 instructions:   40000000 cycles:   22848922 heartbeat IPC: 1.71687 cumulative IPC: 1.75063 (Simulation time: 0 hr 5 min 0 sec) 
Heartbeat CPU  0 instructions:   43000003 cycles:   22943798 heartbeat IPC: 1.81286 cumulative IPC: 1.87414 (Simulation time: 0 hr 5 min 1 sec) 
Heartbeat CPU  3 instructions:   43000001 cycles:   23021596 heartbeat IPC: 1.92032 cumulative IPC: 1.86781 (Simulation time: 0 hr 5 min 2 sec) 
Heartbeat CPU  1 instructions:   44000000 cycles:   23319933 heartbeat IPC: 1.92451 cumulative IPC: 1.88680 (Simulation time: 0 hr 5 min 6 sec) 
Heartbeat CPU  2 instructions:   41000003 cycles:   23425008 heartbeat IPC: 1.73586 cumulative IPC: 1.75027 (Simulation time: 0 hr 5 min 7 sec) 
Heartbeat CPU  0 instructions:   44000000 cycles:   23486319 heartbeat IPC: 1.84324 cumulative IPC: 1.87343 (Simulation time: 0 hr 5 min 8 sec) 
Heartbeat CPU  3 instructions:   44000000 cycles:   23558564 heartbeat IPC: 1.86231 cumulative IPC: 1.86769 (Simulation time: 0 hr 5 min 9 sec) 
Heartbeat CPU  1 instructions:   45000002 cycles:   23873844 heartbeat IPC: 1.80535 cumulative IPC: 1.88491 (Simulation time: 0 hr 5 min 13 sec) 
Heartbeat CPU  2 instructions:   42000003 cycles:   24037898 heartbeat IPC: 1.63161 cumulative IPC: 1.74724 (Simulation time: 0 hr 5 min 15 sec) 
Heartbeat CPU  0 instructions:   45000000 cycles:   24043182 heartbeat IPC: 1.79577 cumulative IPC: 1.87163 (Simulation time: 0 hr 5 min 15 sec) 
Heartbeat CPU  3 instructions:   45000002 cycles:   24095052 heartbeat IPC: 1.86398 cumulative IPC: 1.86760 (Simulation time: 0 hr 5 min 16 sec) 
Heartbeat CPU  1 instructions:   46000000 cycles:   24402888 heartbeat IPC: 1.89020 cumulative IPC: 1.88502 (Simulation time: 0 hr 5 min 20 sec) 
Heartbeat CPU  0 instructions:   46000001 cycles:   24559882 heartbeat IPC: 1.93536 cumulative IPC: 1.87297 (Simulation time: 0 hr 5 min 22 sec) 
Heartbeat CPU  2 instructions:   43000002 cycles:   24624641 heartbeat IPC: 1.70432 cumulative IPC: 1.74622 (Simulation time: 0 hr 5 min 23 sec) 
Heartbeat CPU  3 instructions:   46000002 cycles:   24659585 heartbeat IPC: 1.77138 cumulative IPC: 1.86540 (Simulation time: 0 hr 5 min 23 sec) 
Heartbeat CPU  1 instructions:   47000001 cycles:   24925838 heartbeat IPC: 1.91223 cumulative IPC: 1.88559 (Simulation time: 0 hr 5 min 27 sec) 
Heartbeat CPU  0 instructions:   47000000 cycles:   25066395 heartbeat IPC: 1.97428 cumulative IPC: 1.87502 (Simulation time: 0 hr 5 min 29 sec) 
Heartbeat CPU  3 instructions:   47000001 cycles:   25170124 heartbeat IPC: 1.95871 cumulative IPC: 1.86729 (Simulation time: 0 hr 5 min 30 sec) 
Heartbeat CPU  2 instructions:   44000000 cycles:   25210090 heartbeat IPC: 1.70809 cumulative IPC: 1.74533 (Simulation time: 0 hr 5 min 31 sec) 
Heartbeat CPU  1 instructions:   48000000 cycles:   25436057 heartbeat IPC: 1.95994 cumulative IPC: 1.88708 (Simulation time: 0 hr 5 min 34 sec) 
Heartbeat CPU  0 instructions:   48000000 cycles:   25585570 heartbeat IPC: 1.92613 cumulative IPC: 1.87606 (Simulation time: 0 hr 5 min 36 sec) 
Heartbeat CPU  3 instructions:   48000000 cycles:   25691404 heartbeat IPC: 1.91835 cumulative IPC: 1.86833 (Simulation time: 0 hr 5 min 37 sec) 
Heartbeat CPU  2 instructions:   45000003 cycles:   25783575 heartbeat IPC: 1.74373 cumulative IPC: 1.74530 (Simulation time: 0 hr 5 min 39 sec) 
Heartbeat CPU  1 instructions:   49000002 cycles:   25964531 heartbeat IPC: 1.89224 cumulative IPC: 1.88719 (Simulation time: 0 hr 5 min 41 sec) 
Heartbeat CPU  0 instructions:   49000001 cycles:   26096569 heartbeat IPC: 1.95695 cumulative IPC: 1.87764 (Simulation time: 0 hr 5 min 43 sec) 
Heartbeat CPU  3 instructions:   49000003 cycles:   26228054 heartbeat IPC: 1.86342 cumulative IPC: 1.86823 (Simulation time: 0 hr 5 min 44 sec) 
Heartbeat CPU  2 instructions:   46000000 cycles:   26365181 heartbeat IPC: 1.71937 cumulative IPC: 1.74473 (Simulation time: 0 hr 5 min 46 sec) 
Heartbeat CPU  1 instructions:   50000000 cycles:   26476983 heartbeat IPC: 1.95140 cumulative IPC: 1.88843 (Simulation time: 0 hr 5 min 48 sec) 
Heartbeat CPU  0 instructions:   50000000 cycles:   26622153 heartbeat IPC: 1.90264 cumulative IPC: 1.87814 (Simulation time: 0 hr 5 min 50 sec) 
Heartbeat CPU  3 instructions:   50000003 cycles:   26749543 heartbeat IPC: 1.91759 cumulative IPC: 1.86919 (Simulation time: 0 hr 5 min 51 sec) 
Heartbeat CPU  2 instructions:   47000002 cycles:   26999769 heartbeat IPC: 1.57583 cumulative IPC: 1.74076 (Simulation time: 0 hr 5 min 54 sec) 
Heartbeat CPU  1 instructions:   51000002 cycles:   27016041 heartbeat IPC: 1.85509 cumulative IPC: 0.03702 (Simulation time: 0 hr 5 min 55 sec) 
Heartbeat CPU  0 instructions:   51000000 cycles:   27154122 heartbeat IPC: 1.87981 cumulative IPC: 0.03683 (Simulation time: 0 hr 5 min 56 sec) 
Heartbeat CPU  3 instructions:   51000000 cycles:   27351099 heartbeat IPC: 1.66235 cumulative IPC: 0.03656 (Simulation time: 0 hr 5 min 59 sec) 
Heartbeat CPU  1 instructions:   52000000 cycles:   27542678 heartbeat IPC: 1.89884 cumulative IPC: 0.07261 (Simulation time: 0 hr 6 min 2 sec) 
Heartbeat CPU  2 instructions:   48000000 cycles:   27571794 heartbeat IPC: 1.74817 cumulative IPC: 1.74091 (Simulation time: 0 hr 6 min 2 sec) 
Heartbeat CPU  0 instructions:   52000000 cycles:   27694744 heartbeat IPC: 1.84972 cumulative IPC: 0.07222 (Simulation time: 0 hr 6 min 4 sec) 
Heartbeat CPU  3 instructions:   52000000 cycles:   27863352 heartbeat IPC: 1.95216 cumulative IPC: 0.07178 (Simulation time: 0 hr 6 min 6 sec) 
Heartbeat CPU  1 instructions:   53000002 cycles:   28078844 heartbeat IPC: 1.86510 cumulative IPC: 0.10684 (Simulation time: 0 hr 6 min 9 sec) 
Heartbeat CPU  2 instructions:   49000000 cycles:   28148590 heartbeat IPC: 1.73372 cumulative IPC: 1.74076 (Simulation time: 0 hr 6 min 9 sec) 
Heartbeat CPU  0 instructions:   53000003 cycles:   28236838 heartbeat IPC: 1.84470 cumulative IPC: 0.10624 (Simulation time: 0 hr 6 min 11 sec) 
Heartbeat CPU  3 instructions:   53000001 cycles:   28408512 heartbeat IPC: 1.83433 cumulative IPC: 0.10560 (Simulation time: 0 hr 6 min 13 sec) 
Heartbeat CPU  1 instructions:   54000003 cycles:   28621707 heartbeat IPC: 1.84209 cumulative IPC: 0.13975 (Simulation time: 0 hr 6 min 15 sec) 
Heartbeat CPU  2 instructions:   50000000 cycles:   28702892 heartbeat IPC: 1.80407 cumulative IPC: 1.74198 (Simulation time: 0 hr 6 min 17 sec) 

Warmup complete CPU  0 instructions:   53808755 cycles:   28702892 (Simulation time: 0 hr 6 min 17 sec) 
Warmup complete CPU  1 instructions:   54162696 cycles:   28702892 (Simulation time: 0 hr 6 min 17 sec) 
Warmup complete CPU  2 instructions:   50000002 cycles:   28702893 (Simulation time: 0 hr 6 min 17 sec) 
Warmup complete CPU  3 instructions:   53524879 cycles:   28702893 (Simulation time: 0 hr 6 min 17 sec) 

Heartbeat CPU  0 instructions:   54000001 cycles:   29631549 heartbeat IPC: 0.71699 cumulative IPC: 0.20594 (Simulation time: 0 hr 6 min 18 sec) 
Heartbeat CPU  3 instructions:   54000003 cycles:   30966910 heartbeat IPC: 0.39087 cumulative IPC: 0.20986 (Simulation time: 0 hr 6 min 21 sec) 
Heartbeat CPU  1 instructions:   55000002 cycles:   32600384 heartbeat IPC: 0.25134 cumulative IPC: 0.21483 (Simulation time: 0 hr 6 min 24 sec) 
Heartbeat CPU  0 instructions:   55000003 cycles:   34284639 heartbeat IPC: 0.21491 cumulative IPC: 0.21342 (Simulation time: 0 hr 6 min 28 sec) 
Heartbeat CPU  2 instructions:   51000001 cycles:   34296900 heartbeat IPC: 0.17876 cumulative IPC: 0.17876 (Simulation time: 0 hr 6 min 28 sec) 
Heartbeat CPU  3 instructions:   55000002 cycles:   35629360 heartbeat IPC: 0.21448 cumulative IPC: 0.21297 (Simulation time: 0 hr 6 min 30 sec) 
Heartbeat CPU  1 instructions:   56000000 cycles:   37340728 heartbeat IPC: 0.21095 cumulative IPC: 0.21270 (Simulation time: 0 hr 6 min 33 sec) 
Heartbeat CPU  0 instructions:   56000000 cycles:   38973660 heartbeat IPC: 0.21326 cumulative IPC: 0.21335 (Simulation time: 0 hr 6 min 37 sec) 
Heartbeat CPU  2 instructions:   52000000 cycles:   40078433 heartbeat IPC: 0.17296 cumulative IPC: 0.17582 (Simulation time: 0 hr 6 min 39 sec) 
Heartbeat CPU  3 instructions:   56000000 cycles:   40370678 heartbeat IPC: 0.21091 cumulative IPC: 0.21213 (Simulation time: 0 hr 6 min 39 sec) 
Heartbeat CPU  1 instructions:   57000001 cycles:   42101660 heartbeat IPC: 0.21004 cumulative IPC: 0.21176 (Simulation time: 0 hr 6 min 43 sec) 
Heartbeat CPU  0 instructions:   57000001 cycles:   43699069 heartbeat IPC: 0.21162 cumulative IPC: 0.21280 (Simulation time: 0 hr 6 min 46 sec) 
Heartbeat CPU  3 instructions:   57000002 cycles:   45125385 heartbeat IPC: 0.21032 cumulative IPC: 0.21161 (Simulation time: 0 hr 6 min 49 sec) 
Heartbeat CPU  2 instructions:   53000000 cycles:   45926279 heartbeat IPC: 0.17100 cumulative IPC: 0.17418 (Simulation time: 0 hr 6 min 50 sec) 
Heartbeat CPU  1 instructions:   58000000 cycles:   46781040 heartbeat IPC: 0.21370 cumulative IPC: 0.21226 (Simulation time: 0 hr 6 min 52 sec) 
Heartbeat CPU  0 instructions:   58000000 cycles:   48372336 heartbeat IPC: 0.21398 cumulative IPC: 0.21308 (Simulation time: 0 hr 6 min 55 sec) 
Heartbeat CPU  3 instructions:   58000001 cycles:   49830459 heartbeat IPC: 0.21254 cumulative IPC: 0.21181 (Simulation time: 0 hr 6 min 58 sec) 
Heartbeat CPU  2 instructions:   54000001 cycles:   50581559 heartbeat IPC: 0.21481 cumulative IPC: 0.18283 (Simulation time: 0 hr 7 min 0 sec) 
Heartbeat CPU  1 instructions:   59000000 cycles:   51440320 heartbeat IPC: 0.21463 cumulative IPC: 0.21275 (Simulation time: 0 hr 7 min 1 sec) 
Heartbeat CPU  0 instructions:   59000002 cycles:   53059599 heartbeat IPC: 0.21334 cumulative IPC: 0.21313 (Simulation time: 0 hr 7 min 4 sec) 
Heartbeat CPU  3 instructions:   59000002 cycles:   54540368 heartbeat IPC: 0.21232 cumulative IPC: 0.21191 (Simulation time: 0 hr 7 min 7 sec) 
Heartbeat CPU  1 instructions:   60000000 cycles:   56150733 heartbeat IPC: 0.21230 cumulative IPC: 0.21267 (Simulation time: 0 hr 7 min 10 sec) 
Heartbeat CPU  2 instructions:   55000002 cycles:   56429591 heartbeat IPC: 0.17100 cumulative IPC: 0.18033 (Simulation time: 0 hr 7 min 11 sec) 
Heartbeat CPU  0 instructions:   60000000 cycles:   57803116 heartbeat IPC: 0.21081 cumulative IPC: 0.21276 (Simulation time: 0 hr 7 min 14 sec) 
Heartbeat CPU  3 instructions:   60000000 cycles:   59231543 heartbeat IPC: 0.21317 cumulative IPC: 0.21210 (Simulation time: 0 hr 7 min 16 sec) 
Heartbeat CPU  1 instructions:   61000002 cycles:   60814962 heartbeat IPC: 0.21440 cumulative IPC: 0.21292 (Simulation time: 0 hr 7 min 20 sec) 
Heartbeat CPU  2 instructions:   56000000 cycles:   62365879 heartbeat IPC: 0.16846 cumulative IPC: 0.17824 (Simulation time: 0 hr 7 min 23 sec) 
Heartbeat CPU  0 instructions:   61000002 cycles:   62418202 heartbeat IPC: 0.21668 cumulative IPC: 0.21329 (Simulation time: 0 hr 7 min 23 sec) 
Heartbeat CPU  3 instructions:   61000001 cycles:   63957882 heartbeat IPC: 0.21158 cumulative IPC: 0.21203 (Simulation time: 0 hr 7 min 26 sec) 
Heartbeat CPU  1 instructions:   62000002 cycles:   65501915 heartbeat IPC: 0.21336 cumulative IPC: 0.21298 (Simulation time: 0 hr 7 min 29 sec) 
Heartbeat CPU  0 instructions:   62000000 cycles:   67185036 heartbeat IPC: 0.20978 cumulative IPC: 0.21286 (Simulation time: 0 hr 7 min 32 sec) 
Heartbeat CPU  2 instructions:   57000000 cycles:   68204504 heartbeat IPC: 0.17127 cumulative IPC: 0.17721 (Simulation time: 0 hr 7 min 34 sec) 
Heartbeat CPU  3 instructions:   62000002 cycles:   68617687 heartbeat IPC: 0.21460 cumulative IPC: 0.21233 (Simulation time: 0 hr 7 min 35 sec) 
Heartbeat CPU  1 instructions:   63000001 cycles:   70232213 heartbeat IPC: 0.21140 cumulative IPC: 0.21280 (Simulation time: 0 hr 7 min 38 sec) 
Heartbeat CPU  0 instructions:   63000003 cycles:   71918360 heartbeat IPC: 0.21127 cumulative IPC: 0.21268 (Simulation time: 0 hr 7 min 41 sec) 
Heartbeat CPU  3 instructions:   63000001 cycles:   73375920 heartbeat IPC: 0.21016 cumulative IPC: 0.21210 (Simulation time: 0 hr 7 min 44 sec) 
Heartbeat CPU  2 instructions:   58000003 cycles:   74134967 heartbeat IPC: 0.16862 cumulative IPC: 0.17609 (Simulation time: 0 hr 7 min 45 sec) 
Heartbeat CPU  1 instructions:   64000000 cycles:   74818581 heartbeat IPC: 0.21804 cumulative IPC: 0.21332 (Simulation time: 0 hr 7 min 47 sec) 
Heartbeat CPU  0 instructions:   64000000 cycles:   76589440 heartbeat IPC: 0.21408 cumulative IPC: 0.21282 (Simulation time: 0 hr 7 min 50 sec) 
Heartbeat CPU  3 instructions:   64000000 cycles:   78062180 heartbeat IPC: 0.21339 cumulative IPC: 0.21222 (Simulation time: 0 hr 7 min 53 sec) 
Heartbeat CPU  1 instructions:   65000003 cycles:   79468783 heartbeat IPC: 0.21505 cumulative IPC: 0.21348 (Simulation time: 0 hr 7 min 56 sec) 
Heartbeat CPU  2 instructions:   59000000 cycles:   79947173 heartbeat IPC: 0.17205 cumulative IPC: 0.17563 (Simulation time: 0 hr 7 min 57 sec) 
Heartbeat CPU  0 instructions:   65000001 cycles:   81347102 heartbeat IPC: 0.21019 cumulative IPC: 0.21258 (Simulation time: 0 hr 8 min 0 sec) 
Heartbeat CPU  3 instructions:   65000002 cycles:   82773179 heartbeat IPC: 0.21227 cumulative IPC: 0.21223 (Simulation time: 0 hr 8 min 2 sec) 
Heartbeat CPU  1 instructions:   66000000 cycles:   84158444 heartbeat IPC: 0.21323 cumulative IPC: 0.21346 (Simulation time: 0 hr 8 min 5 sec) 
Heartbeat CPU  2 instructions:   60000000 cycles:   85821132 heartbeat IPC: 0.17024 cumulative IPC: 0.17508 (Simulation time: 0 hr 8 min 9 sec) 
Heartbeat CPU  0 instructions:   66000003 cycles:   86013615 heartbeat IPC: 0.21429 cumulative IPC: 0.21272 (Simulation time: 0 hr 8 min 9 sec) 
Heartbeat CPU  3 instructions:   66000001 cycles:   87391172 heartbeat IPC: 0.21654 cumulative IPC: 0.21257 (Simulation time: 0 hr 8 min 12 sec) 
Heartbeat CPU  1 instructions:   67000000 cycles:   88836145 heartbeat IPC: 0.21378 cumulative IPC: 0.21348 (Simulation time: 0 hr 8 min 15 sec) 
Heartbeat CPU  0 instructions:   67000002 cycles:   90619467 heartbeat IPC: 0.21711 cumulative IPC: 0.21305 (Simulation time: 0 hr 8 min 18 sec) 
Heartbeat CPU  2 instructions:   61000000 cycles:   91724985 heartbeat IPC: 0.16938 cumulative IPC: 0.17454 (Simulation time: 0 hr 8 min 20 sec) 
Heartbeat CPU  3 instructions:   67000003 cycles:   92090752 heartbeat IPC: 0.21279 cumulative IPC: 0.21258 (Simulation time: 0 hr 8 min 21 sec) 
Heartbeat CPU  1 instructions:   68000000 cycles:   93463551 heartbeat IPC: 0.21610 cumulative IPC: 0.21367 (Simulation time: 0 hr 8 min 24 sec) 
Heartbeat CPU  0 instructions:   68000000 cycles:   95242679 heartbeat IPC: 0.21630 cumulative IPC: 0.21327 (Simulation time: 0 hr 8 min 27 sec) 
Heartbeat CPU  3 instructions:   68000000 cycles:   96778724 heartbeat IPC: 0.21331 cumulative IPC: 0.21263 (Simulation time: 0 hr 8 min 30 sec) 
Heartbeat CPU  2 instructions:   62000002 cycles:   97575831 heartbeat IPC: 0.17092 cumulative IPC: 0.17423 (Simulation time: 0 hr 8 min 32 sec) 
Heartbeat CPU  1 instructions:   69000000 cycles:   98055107 heartbeat IPC: 0.21779 cumulative IPC: 0.21394 (Simulation time: 0 hr 8 min 33 sec) 
Heartbeat CPU  3 instructions:   69000000 cycles:   98433510 heartbeat IPC: 0.60431 cumulative IPC: 0.22193 (Simulation time: 0 hr 8 min 34 sec) 
Heartbeat CPU  3 instructions:   70000003 cycles:   99000287 heartbeat IPC: 1.76437 cumulative IPC: 0.23436 (Simulation time: 0 hr 8 min 37 sec) 
Heartbeat CPU  3 instructions:   71000000 cycles:   99551886 heartbeat IPC: 1.81291 cumulative IPC: 0.24665 (Simulation time: 0 hr 8 min 39 sec) 
Heartbeat CPU  0 instructions:   69000003 cycles:   99887522 heartbeat IPC: 0.21529 cumulative IPC: 0.21341 (Simulation time: 0 hr 8 min 40 sec) 
Heartbeat CPU  3 instructions:   72000000 cycles:  100078318 heartbeat IPC: 1.89958 cumulative IPC: 0.25884 (Simulation time: 0 hr 8 min 41 sec) 
Heartbeat CPU  1 instructions:   70000003 cycles:  102620801 heartbeat IPC: 0.21903 cumulative IPC: 0.21426 (Simulation time: 0 hr 8 min 46 sec) 
Heartbeat CPU  2 instructions:   63000000 cycles:  103364523 heartbeat IPC: 0.17275 cumulative IPC: 0.17412 (Simulation time: 0 hr 8 min 48 sec) 
Heartbeat CPU  3 instructions:   73000001 cycles:  104146568 heartbeat IPC: 0.24581 cumulative IPC: 0.25814 (Simulation time: 0 hr 8 min 49 sec) 
Heartbeat CPU  0 instructions:   70000001 cycles:  104537046 heartbeat IPC: 0.21508 cumulative IPC: 0.21351 (Simulation time: 0 hr 8 min 50 sec) 
Heartbeat CPU  2 instructions:   64000000 cycles:  105493327 heartbeat IPC: 0.46975 cumulative IPC: 0.18231 (Simulation time: 0 hr 8 min 53 sec) 
Heartbeat CPU  1 instructions:   71000003 cycles:  107297408 heartbeat IPC: 0.21383 cumulative IPC: 0.21423 (Simulation time: 0 hr 8 min 57 sec) 
Heartbeat CPU  2 instructions:   65000000 cycles:  107497873 heartbeat IPC: 0.49887 cumulative IPC: 0.19037 (Simulation time: 0 hr 8 min 57 sec) 
Heartbeat CPU  3 instructions:   74000000 cycles:  108751933 heartbeat IPC: 0.21714 cumulative IPC: 0.25578 (Simulation time: 0 hr 9 min 0 sec) 
Heartbeat CPU  0 instructions:   71000002 cycles:  109237996 heartbeat IPC: 0.21272 cumulative IPC: 0.21346 (Simulation time: 0 hr 9 min 2 sec) 
Heartbeat CPU  2 instructions:   66000001 cycles:  109359490 heartbeat IPC: 0.53717 cumulative IPC: 0.19837 (Simulation time: 0 hr 9 min 2 sec) 
Heartbeat CPU  2 instructions:   67000002 cycles:  111171477 heartbeat IPC: 0.55188 cumulative IPC: 0.20614 (Simulation time: 0 hr 9 min 6 sec) 
Heartbeat CPU  1 instructions:   72000000 cycles:  111945093 heartbeat IPC: 0.21516 cumulative IPC: 0.21428 (Simulation time: 0 hr 9 min 9 sec) 
Heartbeat CPU  0 instructions:   72000000 cycles:  111969573 heartbeat IPC: 0.36609 cumulative IPC: 0.21847 (Simulation time: 0 hr 9 min 9 sec) 
Heartbeat CPU  2 instructions:   68000000 cycles:  112930137 heartbeat IPC: 0.56861 cumulative IPC: 0.21371 (Simulation time: 0 hr 9 min 11 sec) 
Heartbeat CPU  3 instructions:   75000001 cycles:  113298836 heartbeat IPC: 0.21993 cumulative IPC: 0.25386 (Simulation time: 0 hr 9 min 12 sec) 
Heartbeat CPU  2 instructions:   69000003 cycles:  114402821 heartbeat IPC: 0.67903 cumulative IPC: 0.22170 (Simulation time: 0 hr 9 min 15 sec) 
Heartbeat CPU  2 instructions:   70000000 cycles:  115799513 heartbeat IPC: 0.71598 cumulative IPC: 0.22963 (Simulation time: 0 hr 9 min 19 sec) 
Heartbeat CPU  0 instructions:   73000001 cycles:  115809644 heartbeat IPC: 0.26041 cumulative IPC: 0.22032 (Simulation time: 0 hr 9 min 19 sec) 
Heartbeat CPU  1 instructions:   73000002 cycles:  116522458 heartbeat IPC: 0.21847 cumulative IPC: 0.21450 (Simulation time: 0 hr 9 min 21 sec) 
Heartbeat CPU  2 instructions:   71000003 cycles:  117409058 heartbeat IPC: 0.62130 cumulative IPC: 0.23674 (Simulation time: 0 hr 9 min 23 sec) 
Heartbeat CPU  3 instructions:   76000000 cycles:  118116806 heartbeat IPC: 0.20756 cumulative IPC: 0.25136 (Simulation time: 0 hr 9 min 25 sec) 
Heartbeat CPU  2 instructions:   72000000 cycles:  118717692 heartbeat IPC: 0.76415 cumulative IPC: 0.24440 (Simulation time: 0 hr 9 min 27 sec) 
Heartbeat CPU  0 instructions:   74000003 cycles:  120472692 heartbeat IPC: 0.21445 cumulative IPC: 0.22002 (Simulation time: 0 hr 9 min 30 sec) 
Heartbeat CPU  1 instructions:   74000003 cycles:  121320576 heartbeat IPC: 0.20842 cumulative IPC: 0.21418 (Simulation time: 0 hr 9 min 32 sec) 
Heartbeat CPU  3 instructions:   77000000 cycles:  122887064 heartbeat IPC: 0.20963 cumulative IPC: 0.24925 (Simulation time: 0 hr 9 min 35 sec) 
Heartbeat CPU  2 instructions:   73000000 cycles:  123785883 heartbeat IPC: 0.19731 cumulative IPC: 0.24189 (Simulation time: 0 hr 9 min 37 sec) 
Heartbeat CPU  0 instructions:   75000001 cycles:  125073585 heartbeat IPC: 0.21735 cumulative IPC: 0.21989 (Simulation time: 0 hr 9 min 39 sec) 
Heartbeat CPU  1 instructions:   75000002 cycles:  125837507 heartbeat IPC: 0.22139 cumulative IPC: 0.21452 (Simulation time: 0 hr 9 min 41 sec) 
Heartbeat CPU  3 instructions:   78000001 cycles:  127650974 heartbeat IPC: 0.20991 cumulative IPC: 0.24735 (Simulation time: 0 hr 9 min 44 sec) 
Heartbeat CPU  2 instructions:   74000000 cycles:  129255220 heartbeat IPC: 0.18284 cumulative IPC: 0.23868 (Simulation time: 0 hr 9 min 47 sec) 
Heartbeat CPU  0 instructions:   76000000 cycles:  129819956 heartbeat IPC: 0.21069 cumulative IPC: 0.21946 (Simulation time: 0 hr 9 min 48 sec) 
Heartbeat CPU  1 instructions:   76000000 cycles:  130521610 heartbeat IPC: 0.21349 cumulative IPC: 0.21447 (Simulation time: 0 hr 9 min 50 sec) 
Heartbeat CPU  3 instructions:   79000001 cycles:  132408262 heartbeat IPC: 0.21020 cumulative IPC: 0.24565 (Simulation time: 0 hr 9 min 53 sec) 
Heartbeat CPU  2 instructions:   75000003 cycles:  133934283 heartbeat IPC: 0.21372 cumulative IPC: 0.23757 (Simulation time: 0 hr 9 min 56 sec) 
Heartbeat CPU  0 instructions:   77000002 cycles:  134503509 heartbeat IPC: 0.21351 cumulative IPC: 0.21920 (Simulation time: 0 hr 9 min 57 sec) 
Heartbeat CPU  1 instructions:   77000002 cycles:  135247586 heartbeat IPC: 0.21160 cumulative IPC: 0.21434 (Simulation time: 0 hr 9 min 59 sec) 
Heartbeat CPU  3 instructions:   80000000 cycles:  137215700 heartbeat IPC: 0.20801 cumulative IPC: 0.24398 (Simulation time: 0 hr 10 min 3 sec) 
Heartbeat CPU  0 instructions:   78000000 cycles:  139219704 heartbeat IPC: 0.21203 cumulative IPC: 0.21889 (Simulation time: 0 hr 10 min 6 sec) 
Heartbeat CPU  2 instructions:   76000000 cycles:  139859750 heartbeat IPC: 0.16876 cumulative IPC: 0.23390 (Simulation time: 0 hr 10 min 8 sec) 
Heartbeat CPU  1 instructions:   78000001 cycles:  140101738 heartbeat IPC: 0.20601 cumulative IPC: 0.21398 (Simulation time: 0 hr 10 min 8 sec) 
Heartbeat CPU  3 instructions:   81000000 cycles:  141968050 heartbeat IPC: 0.21042 cumulative IPC: 0.24257 (Simulation time: 0 hr 10 min 12 sec) 
Heartbeat CPU  0 instructions:   79000002 cycles:  143881483 heartbeat IPC: 0.21451 cumulative IPC: 0.21871 (Simulation time: 0 hr 10 min 15 sec) 
Heartbeat CPU  1 instructions:   79000002 cycles:  144854750 heartbeat IPC: 0.21039 cumulative IPC: 0.21383 (Simulation time: 0 hr 10 min 17 sec) 
Heartbeat CPU  2 instructions:   77000001 cycles:  145806369 heartbeat IPC: 0.16816 cumulative IPC: 0.23057 (Simulation time: 0 hr 10 min 19 sec) 
Heartbeat CPU  3 instructions:   82000000 cycles:  146650712 heartbeat IPC: 0.21355 cumulative IPC: 0.24142 (Simulation time: 0 hr 10 min 21 sec) 
Heartbeat CPU  0 instructions:   80000000 cycles:  148620958 heartbeat IPC: 0.21099 cumulative IPC: 0.21841 (Simulation time: 0 hr 10 min 24 sec) 
Heartbeat CPU  1 instructions:   80000000 cycles:  149623932 heartbeat IPC: 0.20968 cumulative IPC: 0.21367 (Simulation time: 0 hr 10 min 26 sec) 
Heartbeat CPU  3 instructions:   83000000 cycles:  151523128 heartbeat IPC: 0.20524 cumulative IPC: 0.23999 (Simulation time: 0 hr 10 min 30 sec) 
Heartbeat CPU  2 instructions:   78000000 cycles:  151779711 heartbeat IPC: 0.16741 cumulative IPC: 0.22750 (Simulation time: 0 hr 10 min 30 sec) 
Heartbeat CPU  0 instructions:   81000000 cycles:  153319806 heartbeat IPC: 0.21282 cumulative IPC: 0.21820 (Simulation time: 0 hr 10 min 33 sec) 
Heartbeat CPU  1 instructions:   81000002 cycles:  154329491 heartbeat IPC: 0.21252 cumulative IPC: 0.21363 (Simulation time: 0 hr 10 min 35 sec) 
Heartbeat CPU  3 instructions:   84000000 cycles:  156302389 heartbeat IPC: 0.20924 cumulative IPC: 0.23883 (Simulation time: 0 hr 10 min 39 sec) 
Heartbeat CPU  2 instructions:   79000001 cycles:  157678926 heartbeat IPC: 0.16951 cumulative IPC: 0.22485 (Simulation time: 0 hr 10 min 42 sec) 
Heartbeat CPU  0 instructions:   82000002 cycles:  158005591 heartbeat IPC: 0.21341 cumulative IPC: 0.21803 (Simulation time: 0 hr 10 min 42 sec) 
Heartbeat CPU  1 instructions:   82000000 cycles:  158976514 heartbeat IPC: 0.21519 cumulative IPC: 0.21368 (Simulation time: 0 hr 10 min 44 sec) 
Heartbeat CPU  3 instructions:   85000002 cycles:  161130982 heartbeat IPC: 0.20710 cumulative IPC: 0.23768 (Simulation time: 0 hr 10 min 48 sec) 
Heartbeat CPU  0 instructions:   83000001 cycles:  162825582 heartbeat IPC: 0.20747 cumulative IPC: 0.21765 (Simulation time: 0 hr 10 min 51 sec) 
Heartbeat CPU  2 instructions:   80000000 cycles:  163655625 heartbeat IPC: 0.16732 cumulative IPC: 0.22230 (Simulation time: 0 hr 10 min 53 sec) 
Heartbeat CPU  1 instructions:   83000002 cycles:  163673288 heartbeat IPC: 0.21291 cumulative IPC: 0.21366 (Simulation time: 0 hr 10 min 53 sec) 
Heartbeat CPU  3 instructions:   86000000 cycles:  165937169 heartbeat IPC: 0.20806 cumulative IPC: 0.23664 (Simulation time: 0 hr 10 min 57 sec) 
Heartbeat CPU  0 instructions:   84000000 cycles:  167503330 heartbeat IPC: 0.21378 cumulative IPC: 0.21752 (Simulation time: 0 hr 11 min 0 sec) 
Heartbeat CPU  1 instructions:   84000000 cycles:  168333950 heartbeat IPC: 0.21456 cumulative IPC: 0.21369 (Simulation time: 0 hr 11 min 2 sec) 
Heartbeat CPU  2 instructions:   81000001 cycles:  169497959 heartbeat IPC: 0.17116 cumulative IPC: 0.22018 (Simulation time: 0 hr 11 min 4 sec) 
Heartbeat CPU  3 instructions:   87000003 cycles:  170794511 heartbeat IPC: 0.20587 cumulative IPC: 0.23559 (Simulation time: 0 hr 11 min 7 sec) 
Heartbeat CPU  0 instructions:   85000002 cycles:  172291342 heartbeat IPC: 0.20886 cumulative IPC: 0.21723 (Simulation time: 0 hr 11 min 9 sec) 
Heartbeat CPU  1 instructions:   85000001 cycles:  173063821 heartbeat IPC: 0.21142 cumulative IPC: 0.21361 (Simulation time: 0 hr 11 min 11 sec) 
Heartbeat CPU  2 instructions:   82000000 cycles:  175360589 heartbeat IPC: 0.17057 cumulative IPC: 0.21820 (Simulation time: 0 hr 11 min 15 sec) 
Heartbeat CPU  3 instructions:   88000000 cycles:  175690457 heartbeat IPC: 0.20425 cumulative IPC: 0.23454 (Simulation time: 0 hr 11 min 16 sec) 
Heartbeat CPU  0 instructions:   86000002 cycles:  177048463 heartbeat IPC: 0.21021 cumulative IPC: 0.21700 (Simulation time: 0 hr 11 min 18 sec) 
Heartbeat CPU  1 instructions:   86000001 cycles:  177792782 heartbeat IPC: 0.21146 cumulative IPC: 0.21354 (Simulation time: 0 hr 11 min 20 sec) 
Heartbeat CPU  3 instructions:   89000003 cycles:  180456757 heartbeat IPC: 0.20981 cumulative IPC: 0.23377 (Simulation time: 0 hr 11 min 25 sec) 
Heartbeat CPU  2 instructions:   83000001 cycles:  181267663 heartbeat IPC: 0.16929 cumulative IPC: 0.21630 (Simulation time: 0 hr 11 min 27 sec) 
Heartbeat CPU  0 instructions:   87000002 cycles:  181785455 heartbeat IPC: 0.21110 cumulative IPC: 0.21682 (Simulation time: 0 hr 11 min 28 sec) 
Heartbeat CPU  1 instructions:   87000003 cycles:  182678216 heartbeat IPC: 0.20469 cumulative IPC: 0.21326 (Simulation time: 0 hr 11 min 29 sec) 
Heartbeat CPU  3 instructions:   90000003 cycles:  185166528 heartbeat IPC: 0.21232 cumulative IPC: 0.23312 (Simulation time: 0 hr 11 min 34 sec) 
Heartbeat CPU  0 instructions:   88000000 cycles:  186480586 heartbeat IPC: 0.21299 cumulative IPC: 0.21671 (Simulation time: 0 hr 11 min 37 sec) 
Heartbeat CPU  2 instructions:   84000000 cycles:  187113634 heartbeat IPC: 0.17106 cumulative IPC: 0.21463 (Simulation time: 0 hr 11 min 38 sec) 
Heartbeat CPU  1 instructions:   88000000 cycles:  187374731 heartbeat IPC: 0.21292 cumulative IPC: 0.21325 (Simulation time: 0 hr 11 min 38 sec) 
Heartbeat CPU  3 instructions:   91000000 cycles:  189820625 heartbeat IPC: 0.21486 cumulative IPC: 0.23259 (Simulation time: 0 hr 11 min 43 sec) 
Heartbeat CPU  1 instructions:   89000002 cycles:  190027931 heartbeat IPC: 0.37690 cumulative IPC: 0.21594 (Simulation time: 0 hr 11 min 44 sec) 
Heartbeat CPU  0 instructions:   89000003 cycles:  191014695 heartbeat IPC: 0.22055 cumulative IPC: 0.21681 (Simulation time: 0 hr 11 min 46 sec) 
Heartbeat CPU  2 instructions:   85000000 cycles:  193049060 heartbeat IPC: 0.16848 cumulative IPC: 0.21297 (Simulation time: 0 hr 11 min 50 sec) 
Heartbeat CPU  3 instructions:   92000000 cycles:  194514601 heartbeat IPC: 0.21304 cumulative IPC: 0.23204 (Simulation time: 0 hr 11 min 53 sec) 
Heartbeat CPU  1 instructions:   90000003 cycles:  194573774 heartbeat IPC: 0.21998 cumulative IPC: 0.21606 (Simulation time: 0 hr 11 min 53 sec) 
Heartbeat CPU  0 instructions:   90000001 cycles:  195635310 heartbeat IPC: 0.21642 cumulative IPC: 0.21680 (Simulation time: 0 hr 11 min 55 sec) 
Heartbeat CPU  2 instructions:   86000002 cycles:  198963620 heartbeat IPC: 0.16907 cumulative IPC: 0.21144 (Simulation time: 0 hr 12 min 1 sec) 
Heartbeat CPU  3 instructions:   93000002 cycles:  199229336 heartbeat IPC: 0.21210 cumulative IPC: 0.23149 (Simulation time: 0 hr 12 min 2 sec) 
Heartbeat CPU  1 instructions:   91000002 cycles:  199290109 heartbeat IPC: 0.21203 cumulative IPC: 0.21594 (Simulation time: 0 hr 12 min 2 sec) 
Heartbeat CPU  0 instructions:   91000003 cycles:  200384787 heartbeat IPC: 0.21055 cumulative IPC: 0.21663 (Simulation time: 0 hr 12 min 4 sec) 
Heartbeat CPU  2 instructions:   87000003 cycles:  203794936 heartbeat IPC: 0.20698 cumulative IPC: 0.21132 (Simulation time: 0 hr 12 min 11 sec) 
Heartbeat CPU  3 instructions:   94000002 cycles:  203952925 heartbeat IPC: 0.21170 cumulative IPC: 0.23096 (Simulation time: 0 hr 12 min 11 sec) 
Heartbeat CPU  1 instructions:   92000000 cycles:  203987699 heartbeat IPC: 0.21287 cumulative IPC: 0.21586 (Simulation time: 0 hr 12 min 11 sec) 
Heartbeat CPU  0 instructions:   92000000 cycles:  205073536 heartbeat IPC: 0.21328 cumulative IPC: 0.21654 (Simulation time: 0 hr 12 min 14 sec) 
Heartbeat CPU  3 instructions:   95000000 cycles:  208661671 heartbeat IPC: 0.21237 cumulative IPC: 0.23047 (Simulation time: 0 hr 12 min 20 sec) 
Heartbeat CPU  1 instructions:   93000003 cycles:  208676745 heartbeat IPC: 0.21326 cumulative IPC: 0.21579 (Simulation time: 0 hr 12 min 20 sec) 
Heartbeat CPU  2 instructions:   88000000 cycles:  209656995 heartbeat IPC: 0.17059 cumulative IPC: 0.21000 (Simulation time: 0 hr 12 min 22 sec) 
Heartbeat CPU  0 instructions:   93000000 cycles:  209712271 heartbeat IPC: 0.21558 cumulative IPC: 0.21651 (Simulation time: 0 hr 12 min 23 sec) 
Heartbeat CPU  2 instructions:   89000002 cycles:  212795400 heartbeat IPC: 0.31863 cumulative IPC: 0.21185 (Simulation time: 0 hr 12 min 29 sec) 
Heartbeat CPU  1 instructions:   94000000 cycles:  213320369 heartbeat IPC: 0.21535 cumulative IPC: 0.21578 (Simulation time: 0 hr 12 min 30 sec) 
Heartbeat CPU  3 instructions:   96000000 cycles:  213350106 heartbeat IPC: 0.21329 cumulative IPC: 0.23003 (Simulation time: 0 hr 12 min 30 sec) 
Heartbeat CPU  0 instructions:   94000001 cycles:  214410935 heartbeat IPC: 0.21283 cumulative IPC: 0.21642 (Simulation time: 0 hr 12 min 32 sec) 
Heartbeat CPU  3 instructions:   97000002 cycles:  218068031 heartbeat IPC: 0.21196 cumulative IPC: 0.22958 (Simulation time: 0 hr 12 min 39 sec) 
Heartbeat CPU  1 instructions:   95000000 cycles:  218072890 heartbeat IPC: 0.21041 cumulative IPC: 0.21565 (Simulation time: 0 hr 12 min 39 sec) 
Heartbeat CPU  2 instructions:   90000000 cycles:  218293941 heartbeat IPC: 0.18187 cumulative IPC: 0.21098 (Simulation time: 0 hr 12 min 40 sec) 
Heartbeat CPU  0 instructions:   95000002 cycles:  219086056 heartbeat IPC: 0.21390 cumulative IPC: 0.21636 (Simulation time: 0 hr 12 min 41 sec) 
Heartbeat CPU  3 instructions:   98000000 cycles:  222645682 heartbeat IPC: 0.21845 cumulative IPC: 0.22932 (Simulation time: 0 hr 12 min 48 sec) 
Heartbeat CPU  1 instructions:   96000000 cycles:  222746763 heartbeat IPC: 0.21396 cumulative IPC: 0.21561 (Simulation time: 0 hr 12 min 49 sec) 
Heartbeat CPU  2 instructions:   91000001 cycles:  223353120 heartbeat IPC: 0.19766 cumulative IPC: 0.21063 (Simulation time: 0 hr 12 min 50 sec) 
Heartbeat CPU  0 instructions:   96000000 cycles:  223783354 heartbeat IPC: 0.21289 cumulative IPC: 0.21628 (Simulation time: 0 hr 12 min 51 sec) 
Heartbeat CPU  1 instructions:   97000000 cycles:  225881763 heartbeat IPC: 0.31898 cumulative IPC: 0.21725 (Simulation time: 0 hr 12 min 56 sec) 
Heartbeat CPU  2 instructions:   92000000 cycles:  226394275 heartbeat IPC: 0.32882 cumulative IPC: 0.21245 (Simulation time: 0 hr 12 min 57 sec) 
Heartbeat CPU  3 instructions:   99000003 cycles:  227404312 heartbeat IPC: 0.21015 cumulative IPC: 0.22886 (Simulation time: 0 hr 12 min 59 sec) 
Heartbeat CPU  0 instructions:   97000002 cycles:  228374178 heartbeat IPC: 0.21783 cumulative IPC: 0.21631 (Simulation time: 0 hr 13 min 1 sec) 
Heartbeat CPU  2 instructions:   93000000 cycles:  228694717 heartbeat IPC: 0.43470 cumulative IPC: 0.21501 (Simulation time: 0 hr 13 min 2 sec) 
Heartbeat CPU  1 instructions:   98000001 cycles:  230552088 heartbeat IPC: 0.21412 cumulative IPC: 0.21718 (Simulation time: 0 hr 13 min 6 sec) 
*** Reached end of trace for Core: 3 Repeating trace: /data3/STREAMING/traces/streaming_phase3_core3.trace.xz
Heartbeat CPU  3 instructions:  100000000 cycles:  232135503 heartbeat IPC: 0.21136 cumulative IPC: 0.22845 (Simulation time: 0 hr 13 min 9 sec) 
Heartbeat CPU  2 instructions:   94000000 cycles:  232893530 heartbeat IPC: 0.23816 cumulative IPC: 0.21548 (Simulation time: 0 hr 13 min 11 sec) 
Heartbeat CPU  0 instructions:   98000001 cycles:  233027264 heartbeat IPC: 0.21491 cumulative IPC: 0.21628 (Simulation time: 0 hr 13 min 11 sec) 
Heartbeat CPU  1 instructions:   99000000 cycles:  235223382 heartbeat IPC: 0.21407 cumulative IPC: 0.21711 (Simulation time: 0 hr 13 min 15 sec) 
Heartbeat CPU  3 instructions:  101000001 cycles:  236871439 heartbeat IPC: 0.21115 cumulative IPC: 0.22806 (Simulation time: 0 hr 13 min 18 sec) 
Heartbeat CPU  0 instructions:   99000003 cycles:  237785675 heartbeat IPC: 0.21015 cumulative IPC: 0.21614 (Simulation time: 0 hr 13 min 20 sec) 
Heartbeat CPU  2 instructions:   95000001 cycles:  238766749 heartbeat IPC: 0.17026 cumulative IPC: 0.21422 (Simulation time: 0 hr 13 min 22 sec) 
*** Reached end of trace for Core: 1 Repeating trace: /data3/STREAMING/traces/streaming_phase3_core1.trace.xz
Heartbeat CPU  1 instructions:  100000000 cycles:  239982048 heartbeat IPC: 0.21014 cumulative IPC: 0.21695 (Simulation time: 0 hr 13 min 24 sec) 
Heartbeat CPU  3 instructions:  102000003 cycles:  241588681 heartbeat IPC: 0.21199 cumulative IPC: 0.22770 (Simulation time: 0 hr 13 min 27 sec) 
*** Reached end of trace for Core: 0 Repeating trace: /data3/STREAMING/traces/streaming_phase3_core0.trace.xz
Heartbeat CPU  0 instructions:  100000000 cycles:  242550845 heartbeat IPC: 0.20986 cumulative IPC: 0.21600 (Simulation time: 0 hr 13 min 29 sec) 
Heartbeat CPU  2 instructions:   96000000 cycles:  244619290 heartbeat IPC: 0.17087 cumulative IPC: 0.21305 (Simulation time: 0 hr 13 min 33 sec) 
Heartbeat CPU  1 instructions:  101000000 cycles:  244713491 heartbeat IPC: 0.21135 cumulative IPC: 0.21683 (Simulation time: 0 hr 13 min 33 sec) 
Heartbeat CPU  3 instructions:  103000003 cycles:  246189987 heartbeat IPC: 0.21733 cumulative IPC: 0.22749 (Simulation time: 0 hr 13 min 36 sec) 
Heartbeat CPU  0 instructions:  101000000 cycles:  247312248 heartbeat IPC: 0.21002 cumulative IPC: 0.21587 (Simulation time: 0 hr 13 min 39 sec) 
Heartbeat CPU  2 instructions:   97000002 cycles:  247694728 heartbeat IPC: 0.32516 cumulative IPC: 0.21462 (Simulation time: 0 hr 13 min 40 sec) 
Heartbeat CPU  1 instructions:  102000001 cycles:  249384675 heartbeat IPC: 0.21408 cumulative IPC: 0.21677 (Simulation time: 0 hr 13 min 43 sec) 
Heartbeat CPU  3 instructions:  104000000 cycles:  250876404 heartbeat IPC: 0.21338 cumulative IPC: 0.22719 (Simulation time: 0 hr 13 min 46 sec) 
Heartbeat CPU  0 instructions:  102000001 cycles:  251961481 heartbeat IPC: 0.21509 cumulative IPC: 0.21585 (Simulation time: 0 hr 13 min 48 sec) 
Heartbeat CPU  2 instructions:   98000003 cycles:  253322483 heartbeat IPC: 0.17769 cumulative IPC: 0.21369 (Simulation time: 0 hr 13 min 51 sec) 
Heartbeat CPU  1 instructions:  103000000 cycles:  254213316 heartbeat IPC: 0.20710 cumulative IPC: 0.21656 (Simulation time: 0 hr 13 min 52 sec) 
Heartbeat CPU  3 instructions:  105000001 cycles:  255657340 heartbeat IPC: 0.20916 cumulative IPC: 0.22681 (Simulation time: 0 hr 13 min 55 sec) 
Heartbeat CPU  0 instructions:  103000001 cycles:  256628559 heartbeat IPC: 0.21427 cumulative IPC: 0.21582 (Simulation time: 0 hr 13 min 57 sec) 
Heartbeat CPU  1 instructions:  104000000 cycles:  258817033 heartbeat IPC: 0.21722 cumulative IPC: 0.21658 (Simulation time: 0 hr 14 min 1 sec) 
Heartbeat CPU  2 instructions:   99000001 cycles:  259146970 heartbeat IPC: 0.17169 cumulative IPC: 0.21263 (Simulation time: 0 hr 14 min 2 sec) 
Heartbeat CPU  3 instructions:  106000002 cycles:  260345106 heartbeat IPC: 0.21332 cumulative IPC: 0.22654 (Simulation time: 0 hr 14 min 4 sec) 
Heartbeat CPU  0 instructions:  104000000 cycles:  261347671 heartbeat IPC: 0.21190 cumulative IPC: 0.21574 (Simulation time: 0 hr 14 min 6 sec) 
Heartbeat CPU  1 instructions:  105000001 cycles:  263556935 heartbeat IPC: 0.21098 cumulative IPC: 0.21646 (Simulation time: 0 hr 14 min 10 sec) 
*** Reached end of trace for Core: 2 Repeating trace: /data3/STREAMING/traces/streaming_phase3_core2.trace.xz
Heartbeat CPU  2 instructions:  100000000 cycles:  264852036 heartbeat IPC: 0.17528 cumulative IPC: 0.21173 (Simulation time: 0 hr 14 min 13 sec) 
Heartbeat CPU  3 instructions:  107000003 cycles:  265061901 heartbeat IPC: 0.21201 cumulative IPC: 0.22625 (Simulation time: 0 hr 14 min 13 sec) 
Heartbeat CPU  0 instructions:  105000003 cycles:  266157535 heartbeat IPC: 0.20791 cumulative IPC: 0.21558 (Simulation time: 0 hr 14 min 15 sec) 
Heartbeat CPU  1 instructions:  106000001 cycles:  268312997 heartbeat IPC: 0.21026 cumulative IPC: 0.21634 (Simulation time: 0 hr 14 min 20 sec) 
Heartbeat CPU  3 instructions:  108000000 cycles:  269757754 heartbeat IPC: 0.21295 cumulative IPC: 0.22599 (Simulation time: 0 hr 14 min 22 sec) 
Heartbeat CPU  2 instructions:  101000002 cycles:  270762376 heartbeat IPC: 0.16920 cumulative IPC: 0.21069 (Simulation time: 0 hr 14 min 24 sec) 
Heartbeat CPU  0 instructions:  106000003 cycles:  270840795 heartbeat IPC: 0.21353 cumulative IPC: 0.21554 (Simulation time: 0 hr 14 min 24 sec) 
Heartbeat CPU  1 instructions:  107000003 cycles:  273036992 heartbeat IPC: 0.21169 cumulative IPC: 0.21625 (Simulation time: 0 hr 14 min 29 sec) 
Heartbeat CPU  3 instructions:  109000002 cycles:  274578052 heartbeat IPC: 0.20746 cumulative IPC: 0.22562 (Simulation time: 0 hr 14 min 32 sec) 
Heartbeat CPU  0 instructions:  107000002 cycles:  275529440 heartbeat IPC: 0.21328 cumulative IPC: 0.21550 (Simulation time: 0 hr 14 min 34 sec) 
Heartbeat CPU  2 instructions:  102000000 cycles:  276587529 heartbeat IPC: 0.17167 cumulative IPC: 0.20978 (Simulation time: 0 hr 14 min 36 sec) 
Heartbeat CPU  1 instructions:  108000000 cycles:  277675948 heartbeat IPC: 0.21557 cumulative IPC: 0.21624 (Simulation time: 0 hr 14 min 38 sec) 
Heartbeat CPU  3 instructions:  110000000 cycles:  279274632 heartbeat IPC: 0.21292 cumulative IPC: 0.22539 (Simulation time: 0 hr 14 min 41 sec) 
Heartbeat CPU  0 instructions:  108000000 cycles:  280258346 heartbeat IPC: 0.21146 cumulative IPC: 0.21542 (Simulation time: 0 hr 14 min 43 sec) 
Heartbeat CPU  2 instructions:  103000003 cycles:  282359786 heartbeat IPC: 0.17324 cumulative IPC: 0.20894 (Simulation time: 0 hr 14 min 47 sec) 
Heartbeat CPU  1 instructions:  109000001 cycles:  282472797 heartbeat IPC: 0.20847 cumulative IPC: 0.21609 (Simulation time: 0 hr 14 min 47 sec) 
Heartbeat CPU  3 instructions:  111000002 cycles:  284000215 heartbeat IPC: 0.21161 cumulative IPC: 0.22513 (Simulation time: 0 hr 14 min 50 sec) 
Heartbeat CPU  0 instructions:  109000000 cycles:  285047692 heartbeat IPC: 0.20880 cumulative IPC: 0.21530 (Simulation time: 0 hr 14 min 52 sec) 
Heartbeat CPU  1 instructions:  110000003 cycles:  287418348 heartbeat IPC: 0.20220 cumulative IPC: 0.21583 (Simulation time: 0 hr 14 min 56 sec) 
Heartbeat CPU  2 instructions:  104000000 cycles:  288322901 heartbeat IPC: 0.16770 cumulative IPC: 0.20800 (Simulation time: 0 hr 14 min 58 sec) 
Heartbeat CPU  3 instructions:  112000000 cycles:  288685174 heartbeat IPC: 0.21345 cumulative IPC: 0.22492 (Simulation time: 0 hr 14 min 59 sec) 
Heartbeat CPU  0 instructions:  110000002 cycles:  289745614 heartbeat IPC: 0.21286 cumulative IPC: 0.21526 (Simulation time: 0 hr 15 min 1 sec) 
Heartbeat CPU  1 instructions:  111000002 cycles:  292147030 heartbeat IPC: 0.21148 cumulative IPC: 0.21575 (Simulation time: 0 hr 15 min 6 sec) 
Heartbeat CPU  3 instructions:  113000002 cycles:  293158304 heartbeat IPC: 0.22356 cumulative IPC: 0.22490 (Simulation time: 0 hr 15 min 8 sec) 
Heartbeat CPU  2 instructions:  105000002 cycles:  294195988 heartbeat IPC: 0.17027 cumulative IPC: 0.20716 (Simulation time: 0 hr 15 min 10 sec) 
Heartbeat CPU  0 instructions:  111000003 cycles:  294382446 heartbeat IPC: 0.21566 cumulative IPC: 0.21526 (Simulation time: 0 hr 15 min 10 sec) 
Heartbeat CPU  1 instructions:  112000000 cycles:  296767938 heartbeat IPC: 0.21641 cumulative IPC: 0.21576 (Simulation time: 0 hr 15 min 15 sec) 
Heartbeat CPU  3 instructions:  114000000 cycles:  297902511 heartbeat IPC: 0.21078 cumulative IPC: 0.22465 (Simulation time: 0 hr 15 min 17 sec) 
Heartbeat CPU  0 instructions:  112000000 cycles:  299010728 heartbeat IPC: 0.21606 cumulative IPC: 0.21528 (Simulation time: 0 hr 15 min 19 sec) 
Heartbeat CPU  2 instructions:  106000003 cycles:  300105187 heartbeat IPC: 0.16923 cumulative IPC: 0.20634 (Simulation time: 0 hr 15 min 21 sec) 
Heartbeat CPU  1 instructions:  113000000 cycles:  301260405 heartbeat IPC: 0.22259 cumulative IPC: 0.21587 (Simulation time: 0 hr 15 min 23 sec) 
Heartbeat CPU  3 instructions:  115000003 cycles:  302633400 heartbeat IPC: 0.21138 cumulative IPC: 0.22442 (Simulation time: 0 hr 15 min 26 sec) 
Heartbeat CPU  0 instructions:  113000000 cycles:  303407820 heartbeat IPC: 0.22742 cumulative IPC: 0.21547 (Simulation time: 0 hr 15 min 28 sec) 
Heartbeat CPU  2 instructions:  107000000 cycles:  305783021 heartbeat IPC: 0.17612 cumulative IPC: 0.20572 (Simulation time: 0 hr 15 min 32 sec) 
Heartbeat CPU  1 instructions:  114000002 cycles:  305975762 heartbeat IPC: 0.21207 cumulative IPC: 0.21581 (Simulation time: 0 hr 15 min 33 sec) 
Heartbeat CPU  3 instructions:  116000000 cycles:  307330681 heartbeat IPC: 0.21289 cumulative IPC: 0.22422 (Simulation time: 0 hr 15 min 35 sec) 
Heartbeat CPU  0 instructions:  114000003 cycles:  307989121 heartbeat IPC: 0.21828 cumulative IPC: 0.21552 (Simulation time: 0 hr 15 min 37 sec) 
Heartbeat CPU  1 instructions:  115000000 cycles:  310580789 heartbeat IPC: 0.21715 cumulative IPC: 0.21583 (Simulation time: 0 hr 15 min 42 sec) 
Heartbeat CPU  2 instructions:  108000000 cycles:  311611890 heartbeat IPC: 0.17156 cumulative IPC: 0.20501 (Simulation time: 0 hr 15 min 44 sec) 
Heartbeat CPU  3 instructions:  117000003 cycles:  311993722 heartbeat IPC: 0.21445 cumulative IPC: 0.22406 (Simulation time: 0 hr 15 min 44 sec) 
Heartbeat CPU  0 instructions:  115000000 cycles:  312711365 heartbeat IPC: 0.21176 cumulative IPC: 0.21546 (Simulation time: 0 hr 15 min 46 sec) 
Heartbeat CPU  1 instructions:  116000000 cycles:  315322156 heartbeat IPC: 0.21091 cumulative IPC: 0.21575 (Simulation time: 0 hr 15 min 51 sec) 
Heartbeat CPU  3 instructions:  118000002 cycles:  316826885 heartbeat IPC: 0.20690 cumulative IPC: 0.22378 (Simulation time: 0 hr 15 min 54 sec) 
Heartbeat CPU  0 instructions:  116000000 cycles:  317339141 heartbeat IPC: 0.21609 cumulative IPC: 0.21547 (Simulation time: 0 hr 15 min 54 sec) 
Heartbeat CPU  2 instructions:  109000002 cycles:  317599156 heartbeat IPC: 0.16702 cumulative IPC: 0.20423 (Simulation time: 0 hr 15 min 55 sec) 
Heartbeat CPU  1 instructions:  117000000 cycles:  319937040 heartbeat IPC: 0.21669 cumulative IPC: 0.21576 (Simulation time: 0 hr 16 min 0 sec) 
Heartbeat CPU  3 instructions:  119000003 cycles:  321585934 heartbeat IPC: 0.21013 cumulative IPC: 0.22355 (Simulation time: 0 hr 16 min 3 sec) 
Heartbeat CPU  0 instructions:  117000000 cycles:  322054270 heartbeat IPC: 0.21208 cumulative IPC: 0.21541 (Simulation time: 0 hr 16 min 4 sec) 
Heartbeat CPU  2 instructions:  110000003 cycles:  323410611 heartbeat IPC: 0.17207 cumulative IPC: 0.20359 (Simulation time: 0 hr 16 min 6 sec) 
Heartbeat CPU  1 instructions:  118000002 cycles:  324610448 heartbeat IPC: 0.21398 cumulative IPC: 0.21573 (Simulation time: 0 hr 16 min 9 sec) 
Heartbeat CPU  2 instructions:  111000000 cycles:  325433548 heartbeat IPC: 0.49433 cumulative IPC: 0.20557 (Simulation time: 0 hr 16 min 11 sec) 
Heartbeat CPU  3 instructions:  120000000 cycles:  326256385 heartbeat IPC: 0.21411 cumulative IPC: 0.22341 (Simulation time: 0 hr 16 min 13 sec) 
Heartbeat CPU  0 instructions:  118000003 cycles:  326735949 heartbeat IPC: 0.21360 cumulative IPC: 0.21538 (Simulation time: 0 hr 16 min 14 sec) 
Heartbeat CPU  1 instructions:  119000000 cycles:  329363942 heartbeat IPC: 0.21037 cumulative IPC: 0.21565 (Simulation time: 0 hr 16 min 19 sec) 
Heartbeat CPU  2 instructions:  112000000 cycles:  329869515 heartbeat IPC: 0.22543 cumulative IPC: 0.20587 (Simulation time: 0 hr 16 min 20 sec) 
Heartbeat CPU  3 instructions:  121000001 cycles:  331204472 heartbeat IPC: 0.20210 cumulative IPC: 0.22306 (Simulation time: 0 hr 16 min 23 sec) 
Heartbeat CPU  0 instructions:  119000003 cycles:  331502975 heartbeat IPC: 0.20977 cumulative IPC: 0.21529 (Simulation time: 0 hr 16 min 23 sec) 
Heartbeat CPU  1 instructions:  120000000 cycles:  333951772 heartbeat IPC: 0.21797 cumulative IPC: 0.21568 (Simulation time: 0 hr 16 min 28 sec) 
Heartbeat CPU  2 instructions:  113000001 cycles:  335599627 heartbeat IPC: 0.17452 cumulative IPC: 0.20528 (Simulation time: 0 hr 16 min 31 sec) 
Heartbeat CPU  3 instructions:  122000002 cycles:  335870563 heartbeat IPC: 0.21431 cumulative IPC: 0.22292 (Simulation time: 0 hr 16 min 32 sec) 
Heartbeat CPU  0 instructions:  120000000 cycles:  336103794 heartbeat IPC: 0.21735 cumulative IPC: 0.21533 (Simulation time: 0 hr 16 min 32 sec) 
Heartbeat CPU  1 instructions:  121000002 cycles:  338641157 heartbeat IPC: 0.21325 cumulative IPC: 0.21565 (Simulation time: 0 hr 16 min 37 sec) 
Heartbeat CPU  3 instructions:  123000000 cycles:  340433715 heartbeat IPC: 0.21915 cumulative IPC: 0.22287 (Simulation time: 0 hr 16 min 40 sec) 
Heartbeat CPU  0 instructions:  121000002 cycles:  341015069 heartbeat IPC: 0.20361 cumulative IPC: 0.21514 (Simulation time: 0 hr 16 min 42 sec) 
Heartbeat CPU  2 instructions:  114000003 cycles:  341321650 heartbeat IPC: 0.17476 cumulative IPC: 0.20472 (Simulation time: 0 hr 16 min 42 sec) 
Heartbeat CPU  1 instructions:  122000003 cycles:  343305479 heartbeat IPC: 0.21439 cumulative IPC: 0.21563 (Simulation time: 0 hr 16 min 46 sec) 
Heartbeat CPU  3 instructions:  124000000 cycles:  345079795 heartbeat IPC: 0.21524 cumulative IPC: 0.22276 (Simulation time: 0 hr 16 min 49 sec) 
Heartbeat CPU  0 instructions:  122000002 cycles:  345735390 heartbeat IPC: 0.21185 cumulative IPC: 0.21509 (Simulation time: 0 hr 16 min 51 sec) 
Heartbeat CPU  2 instructions:  115000000 cycles:  346997145 heartbeat IPC: 0.17620 cumulative IPC: 0.20421 (Simulation time: 0 hr 16 min 53 sec) 
Heartbeat CPU  1 instructions:  123000000 cycles:  348220681 heartbeat IPC: 0.20345 cumulative IPC: 0.21544 (Simulation time: 0 hr 16 min 56 sec) 
Heartbeat CPU  3 instructions:  125000001 cycles:  349787376 heartbeat IPC: 0.21242 cumulative IPC: 0.22261 (Simulation time: 0 hr 16 min 59 sec) 
Heartbeat CPU  0 instructions:  123000002 cycles:  350638790 heartbeat IPC: 0.20394 cumulative IPC: 0.21492 (Simulation time: 0 hr 17 min 0 sec) 
Heartbeat CPU  2 instructions:  116000000 cycles:  352654455 heartbeat IPC: 0.17676 cumulative IPC: 0.20373 (Simulation time: 0 hr 17 min 4 sec) 
Heartbeat CPU  1 instructions:  124000000 cycles:  352800110 heartbeat IPC: 0.21837 cumulative IPC: 0.21548 (Simulation time: 0 hr 17 min 4 sec) 
Heartbeat CPU  3 instructions:  126000002 cycles:  354420910 heartbeat IPC: 0.21582 cumulative IPC: 0.22251 (Simulation time: 0 hr 17 min 8 sec) 
Heartbeat CPU  0 instructions:  124000000 cycles:  355433238 heartbeat IPC: 0.20857 cumulative IPC: 0.21483 (Simulation time: 0 hr 17 min 10 sec) 
Heartbeat CPU  1 instructions:  125000001 cycles:  357624975 heartbeat IPC: 0.20726 cumulative IPC: 0.21536 (Simulation time: 0 hr 17 min 14 sec) 
Heartbeat CPU  2 instructions:  117000003 cycles:  358243527 heartbeat IPC: 0.17892 cumulative IPC: 0.20331 (Simulation time: 0 hr 17 min 15 sec) 
Heartbeat CPU  3 instructions:  127000002 cycles:  359008750 heartbeat IPC: 0.21797 cumulative IPC: 0.22245 (Simulation time: 0 hr 17 min 16 sec) 
Heartbeat CPU  0 instructions:  125000002 cycles:  360265634 heartbeat IPC: 0.20694 cumulative IPC: 0.21471 (Simulation time: 0 hr 17 min 19 sec) 
Heartbeat CPU  1 instructions:  126000001 cycles:  362274140 heartbeat IPC: 0.21509 cumulative IPC: 0.21536 (Simulation time: 0 hr 17 min 23 sec) 
Heartbeat CPU  3 instructions:  128000000 cycles:  363701805 heartbeat IPC: 0.21308 cumulative IPC: 0.22231 (Simulation time: 0 hr 17 min 26 sec) 
Heartbeat CPU  2 instructions:  118000001 cycles:  363932301 heartbeat IPC: 0.17578 cumulative IPC: 0.20285 (Simulation time: 0 hr 17 min 26 sec) 
Heartbeat CPU  0 instructions:  126000003 cycles:  364909684 heartbeat IPC: 0.21533 cumulative IPC: 0.21472 (Simulation time: 0 hr 17 min 28 sec) 
Heartbeat CPU  1 instructions:  127000001 cycles:  367051331 heartbeat IPC: 0.20933 cumulative IPC: 0.21527 (Simulation time: 0 hr 17 min 32 sec) 
Heartbeat CPU  3 instructions:  129000003 cycles:  368391141 heartbeat IPC: 0.21325 cumulative IPC: 0.22219 (Simulation time: 0 hr 17 min 35 sec) 
Heartbeat CPU  0 instructions:  127000002 cycles:  369599744 heartbeat IPC: 0.21322 cumulative IPC: 0.21470 (Simulation time: 0 hr 17 min 37 sec) 
Heartbeat CPU  2 instructions:  119000002 cycles:  369652740 heartbeat IPC: 0.17481 cumulative IPC: 0.20238 (Simulation time: 0 hr 17 min 37 sec) 
Heartbeat CPU  1 instructions:  128000000 cycles:  371760696 heartbeat IPC: 0.21234 cumulative IPC: 0.21523 (Simulation time: 0 hr 17 min 41 sec) 
Heartbeat CPU  3 instructions:  130000001 cycles:  373147877 heartbeat IPC: 0.21023 cumulative IPC: 0.22202 (Simulation time: 0 hr 17 min 44 sec) 
Heartbeat CPU  0 instructions:  128000000 cycles:  374311297 heartbeat IPC: 0.21224 cumulative IPC: 0.21467 (Simulation time: 0 hr 17 min 46 sec) 
Heartbeat CPU  2 instructions:  120000000 cycles:  375281704 heartbeat IPC: 0.17765 cumulative IPC: 0.20197 (Simulation time: 0 hr 17 min 48 sec) 
Heartbeat CPU  1 instructions:  129000002 cycles:  376404059 heartbeat IPC: 0.21536 cumulative IPC: 0.21523 (Simulation time: 0 hr 17 min 50 sec) 
Heartbeat CPU  3 instructions:  131000001 cycles:  377896123 heartbeat IPC: 0.21060 cumulative IPC: 0.22187 (Simulation time: 0 hr 17 min 53 sec) 
Heartbeat CPU  0 instructions:  129000000 cycles:  378936772 heartbeat IPC: 0.21619 cumulative IPC: 0.21469 (Simulation time: 0 hr 17 min 55 sec) 
Heartbeat CPU  2 instructions:  121000002 cycles:  380906091 heartbeat IPC: 0.17780 cumulative IPC: 0.20159 (Simulation time: 0 hr 17 min 59 sec) 
Heartbeat CPU  1 instructions:  130000000 cycles:  381029732 heartbeat IPC: 0.21618 cumulative IPC: 0.21525 (Simulation time: 0 hr 17 min 59 sec) 
Heartbeat CPU  3 instructions:  132000000 cycles:  382642454 heartbeat IPC: 0.21069 cumulative IPC: 0.22172 (Simulation time: 0 hr 18 min 2 sec) 
Heartbeat CPU  0 instructions:  130000001 cycles:  383631424 heartbeat IPC: 0.21301 cumulative IPC: 0.21467 (Simulation time: 0 hr 18 min 4 sec) 
Heartbeat CPU  1 instructions:  131000001 cycles:  385782422 heartbeat IPC: 0.21041 cumulative IPC: 0.21518 (Simulation time: 0 hr 18 min 8 sec) 
Heartbeat CPU  2 instructions:  122000003 cycles:  386579526 heartbeat IPC: 0.17626 cumulative IPC: 0.20119 (Simulation time: 0 hr 18 min 10 sec) 
Heartbeat CPU  3 instructions:  133000003 cycles:  387384149 heartbeat IPC: 0.21090 cumulative IPC: 0.22158 (Simulation time: 0 hr 18 min 11 sec) 
Heartbeat CPU  0 instructions:  131000002 cycles:  388331873 heartbeat IPC: 0.21275 cumulative IPC: 0.21464 (Simulation time: 0 hr 18 min 13 sec) 
Heartbeat CPU  1 instructions:  132000000 cycles:  390690150 heartbeat IPC: 0.20376 cumulative IPC: 0.21503 (Simulation time: 0 hr 18 min 18 sec) 
Heartbeat CPU  2 instructions:  123000000 cycles:  392029911 heartbeat IPC: 0.18347 cumulative IPC: 0.20092 (Simulation time: 0 hr 18 min 20 sec) 
Heartbeat CPU  3 instructions:  134000002 cycles:  392035611 heartbeat IPC: 0.21499 cumulative IPC: 0.22149 (Simulation time: 0 hr 18 min 20 sec) 
Heartbeat CPU  0 instructions:  132000000 cycles:  393157560 heartbeat IPC: 0.20722 cumulative IPC: 0.21454 (Simulation time: 0 hr 18 min 23 sec) 
Heartbeat CPU  1 instructions:  133000000 cycles:  395322471 heartbeat IPC: 0.21587 cumulative IPC: 0.21504 (Simulation time: 0 hr 18 min 27 sec) 
[...]
Core_0_LLC_acc_level_4 5052
Core_0_LLC_acc_level_5 9816
Core_0_LLC_acc_level_6 3248
Core_0_LLC_acc_level_7 2522
Core_0_LLC_acc_level_8 1698
Core_0_LLC_acc_level_9 14056

Core_0_major_page_fault 0
Core_0_minor_page_fault 24018

Core_1_instructions 150000001
Core_1_cycles 696973997
Core_1_IPC 0.21522

Core_1_branch_prediction_accuracy 96.89638
Core_1_branch_MPKI 5.64732
Core_1_average_ROB_occupancy_at_mispredict 82.93366

Core_1_L1D_total_access 24405517
Core_1_L1D_total_hit 21305264
Core_1_L1D_total_miss 3100253
Core_1_L1D_loads 14132618
Core_1_L1D_load_hit 11891254
Core_1_L1D_load_miss 2241364
Core_1_L1D_RFOs 10272899
Core_1_L1D_RFO_hit 9414010
Core_1_L1D_RFO_miss 858889
Core_1_L1D_prefetches 0
Core_1_L1D_prefetch_hit 0
Core_1_L1D_prefetch_miss 0
Core_1_L1D_writebacks 0
Core_1_L1D_writeback_hit 0
Core_1_L1D_writeback_miss 0
Core_1_L1D_prefetch_requested 0
Core_1_L1D_prefetch_dropped 0
Core_1_L1D_prefetch_issued 0
Core_1_L1D_prefetch_filled 0
Core_1_L1D_prefetch_useful 0
Core_1_L1D_prefetch_useless 0
Core_1_L1D_prefetch_late 0
Core_1_L1D_average_miss_latency 95.68109

Core_1_L1D_rq_access 28743860
Core_1_L1D_rq_forward 0
Core_1_L1D_rq_merged 13012472
Core_1_L1D_rq_to_cache 15728386
Core_1_L1D_rq_full 0

Core_1_L1D_wq_access 14590952
Core_1_L1D_wq_forward 3002
Core_1_L1D_wq_merged 42024
Core_1_L1D_wq_to_cache 14548928
Core_1_L1D_wq_full 0

Core_1_L1D_pq_access 0
Core_1_L1D_pq_forward 0
Core_1_L1D_pq_merged 0
Core_1_L1D_pq_to_cache 0
Core_1_L1D_pq_full 0

Core_1_L1D_acc_epochs 188131
Core_1_L1D_acc_level_0 188131
Core_1_L1D_acc_level_1 0
Core_1_L1D_acc_level_2 0
Core_1_L1D_acc_level_3 0
Core_1_L1D_acc_level_4 0
Core_1_L1D_acc_level_5 0
Core_1_L1D_acc_level_6 0
Core_1_L1D_acc_level_7 0
Core_1_L1D_acc_level_8 0
Core_1_L1D_acc_level_9 0

Core_1_L1I_total_access 32483996
Core_1_L1I_total_hit 26213368
Core_1_L1I_total_miss 6270628
Core_1_L1I_loads 32483996
Core_1_L1I_load_hit 26213368
Core_1_L1I_load_miss 6270628
Core_1_L1I_RFOs 0
Core_1_L1I_RFO_hit 0
Core_1_L1I_RFO_miss 0
Core_1_L1I_prefetches 0
Core_1_L1I_prefetch_hit 0
Core_1_L1I_prefetch_miss 0
Core_1_L1I_writebacks 0
Core_1_L1I_writeback_hit 0
Core_1_L1I_writeback_miss 0
Core_1_L1I_prefetch_requested 0
Core_1_L1I_prefetch_dropped 0
Core_1_L1I_prefetch_issued 0
Core_1_L1I_prefetch_filled 0
Core_1_L1I_prefetch_useful 0
Core_1_L1I_prefetch_useless 0
Core_1_L1I_prefetch_late 0
Core_1_L1I_average_miss_latency 92.35328

Core_1_L1I_rq_access 162318056
Core_1_L1I_rq_forward 0
Core_1_L1I_rq_merged 123260460
Core_1_L1I_rq_to_cache 39057596
Core_1_L1I_rq_full 0

Core_1_L1I_wq_access 0
Core_1_L1I_wq_forward 0
Core_1_L1I_wq_merged 0
Core_1_L1I_wq_to_cache 0
Core_1_L1I_wq_full 0

Core_1_L1I_pq_access 0
Core_1_L1I_pq_forward 0
Core_1_L1I_pq_merged 0
Core_1_L1I_pq_to_cache 0
Core_1_L1I_pq_full 0

Core_1_L1I_acc_epochs 188131
Core_1_L1I_acc_level_0 188131
Core_1_L1I_acc_level_1 0
Core_1_L1I_acc_level_2 0
Core_1_L1I_acc_level_3 0
Core_1_L1I_acc_level_4 0
Core_1_L1I_acc_level_5 0
Core_1_L1I_acc_level_6 0
Core_1_L1I_acc_level_7 0
Core_1_L1I_acc_level_8 0
Core_1_L1I_acc_level_9 0

Core_1_L2C_total_access 14721532
Core_1_L2C_total_hit 13287098
Core_1_L2C_total_miss 1434434
Core_1_L2C_loads 8511729
Core_1_L2C_load_hit 7966005
Core_1_L2C_load_miss 545724
Core_1_L2C_RFOs 858419
Core_1_L2C_RFO_hit 469741
Core_1_L2C_RFO_miss 388678
Core_1_L2C_prefetches 4144085
Core_1_L2C_prefetch_hit 3656025
Core_1_L2C_prefetch_miss 488060
Core_1_L2C_writebacks 1207299
Core_1_L2C_writeback_hit 1195327
Core_1_L2C_writeback_miss 11972
Core_1_L2C_prefetch_requested 6750951
Core_1_L2C_prefetch_dropped 0
Core_1_L2C_prefetch_issued 6750951
Core_1_L2C_prefetch_filled 712931
Core_1_L2C_prefetch_useful 619157
Core_1_L2C_prefetch_useless 93602
Core_1_L2C_prefetch_late 36491
Core_1_L2C_average_miss_latency 139.99800

Core_1_L2C_rq_access 10156116
Core_1_L2C_rq_forward 0
Core_1_L2C_rq_merged 0
Core_1_L2C_rq_to_cache 10155336
Core_1_L2C_rq_full 0

Core_1_L2C_wq_access 1307980
Core_1_L2C_wq_forward 795
Core_1_L2C_wq_merged 0
Core_1_L2C_wq_to_cache 1307980
Core_1_L2C_wq_full 0

Core_1_L2C_pq_access 6750951
Core_1_L2C_pq_forward 0
Core_1_L2C_pq_merged 10
Core_1_L2C_pq_to_cache 6750926
Core_1_L2C_pq_full 0

Core_1_L2C_acc_epochs 188131
Core_1_L2C_acc_level_0 86612
Core_1_L2C_acc_level_1 19402
Core_1_L2C_acc_level_2 15156
Core_1_L2C_acc_level_3 9111
Core_1_L2C_acc_level_4 6101
Core_1_L2C_acc_level_5 11556
Core_1_L2C_acc_level_6 5511
Core_1_L2C_acc_level_7 4690
Core_1_L2C_acc_level_8 3762
Core_1_L2C_acc_level_9 26230

Core_1_LLC_total_access 2392549
Core_1_LLC_total_hit 1525071
Core_1_LLC_total_miss 867478
Core_1_LLC_loads 512303
Core_1_LLC_load_hit 346267
Core_1_LLC_load_miss 166036
Core_1_LLC_RFOs 388645
Core_1_LLC_RFO_hit 237088
Core_1_LLC_RFO_miss 151557
Core_1_LLC_prefetches 980882
Core_1_LLC_prefetch_hit 495726
Core_1_LLC_prefetch_miss 485156
Core_1_LLC_writebacks 510719
Core_1_LLC_writeback_hit 445990
Core_1_LLC_writeback_miss 64729
Core_1_LLC_prefetch_requested 0
Core_1_LLC_prefetch_dropped 0
Core_1_LLC_prefetch_issued 0
Core_1_LLC_prefetch_filled 2662432
Core_1_LLC_prefetch_useful 545714
Core_1_LLC_prefetch_useless 2072845
Core_1_LLC_prefetch_late 18374
Core_1_LLC_average_miss_latency 791.43152

Core_1_LLC_rq_access 3782540
Core_1_LLC_rq_forward 0
Core_1_LLC_rq_merged 0
Core_1_LLC_rq_to_cache 3782387
Core_1_LLC_rq_full 0

Core_1_LLC_wq_access 2086719
Core_1_LLC_wq_forward 164
Core_1_LLC_wq_merged 0
Core_1_LLC_wq_to_cache 2086719
Core_1_LLC_wq_full 0

Core_1_LLC_pq_access 5634811
Core_1_LLC_pq_forward 0
Core_1_LLC_pq_merged 0
Core_1_LLC_pq_to_cache 5634797
Core_1_LLC_pq_full 0

Core_1_LLC_acc_epochs 765232
Core_1_LLC_acc_level_0 649007
Core_1_LLC_acc_level_1 45076
Core_1_LLC_acc_level_2 23755
Core_1_LLC_acc_level_3 11002
Core_1_LLC_acc_level_4 5052
Core_1_LLC_acc_level_5 9816
Core_1_LLC_acc_level_6 3248
Core_1_LLC_acc_level_7 2522
Core_1_LLC_acc_level_8 1698
Core_1_LLC_acc_level_9 14056

Core_1_major_page_fault 0
Core_1_minor_page_fault 23534

Core_2_instructions 150000000
Core_2_cycles 754893912
Core_2_IPC 0.19870

Core_2_branch_prediction_accuracy 96.09904
Core_2_branch_MPKI 7.16625
Core_2_average_ROB_occupancy_at_mispredict 84.56407

Core_2_L1D_total_access 23236252
Core_2_L1D_total_hit 20227854
Core_2_L1D_total_miss 3008398
Core_2_L1D_loads 14377761
Core_2_L1D_load_hit 12151000
Core_2_L1D_load_miss 2226761
Core_2_L1D_RFOs 8858491
Core_2_L1D_RFO_hit 8076854
Core_2_L1D_RFO_miss 781637
Core_2_L1D_prefetches 0
Core_2_L1D_prefetch_hit 0
Core_2_L1D_prefetch_miss 0
Core_2_L1D_writebacks 0
Core_2_L1D_writeback_hit 0
Core_2_L1D_writeback_miss 0
Core_2_L1D_prefetch_requested 0
Core_2_L1D_prefetch_dropped 0
Core_2_L1D_prefetch_issued 0
Core_2_L1D_prefetch_filled 0
Core_2_L1D_prefetch_useful 0
Core_2_L1D_prefetch_useless 0
Core_2_L1D_prefetch_late 0
Core_2_L1D_average_miss_latency 88.46780

Core_2_L1D_rq_access 26132874
Core_2_L1D_rq_forward 0
Core_2_L1D_rq_merged 11145597
Core_2_L1D_rq_to_cache 14982091
Core_2_L1D_rq_full 0

Core_2_L1D_wq_access 11493411
Core_2_L1D_wq_forward 5186
Core_2_L1D_wq_merged 35707
Core_2_L1D_wq_to_cache 11457704
Core_2_L1D_wq_full 0

Core_2_L1D_pq_access 0
Core_2_L1D_pq_forward 0
Core_2_L1D_pq_merged 0
Core_2_L1D_pq_to_cache 0
Core_2_L1D_pq_full 0

Core_2_L1D_acc_epochs 180631
Core_2_L1D_acc_level_0 180631
Core_2_L1D_acc_level_1 0
Core_2_L1D_acc_level_2 0
Core_2_L1D_acc_level_3 0
Core_2_L1D_acc_level_4 0
Core_2_L1D_acc_level_5 0
Core_2_L1D_acc_level_6 0
Core_2_L1D_acc_level_7 0
Core_2_L1D_acc_level_8 0
Core_2_L1D_acc_level_9 0

Core_2_L1I_total_access 30078875
Core_2_L1I_total_hit 25041204
Core_2_L1I_total_miss 5037671
Core_2_L1I_loads 30078875
Core_2_L1I_load_hit 25041204
Core_2_L1I_load_miss 5037671
Core_2_L1I_RFOs 0
Core_2_L1I_RFO_hit 0
Core_2_L1I_RFO_miss 0
Core_2_L1I_prefetches 0
Core_2_L1I_prefetch_hit 0
Core_2_L1I_prefetch_miss 0
Core_2_L1I_writebacks 0
Core_2_L1I_writeback_hit 0
Core_2_L1I_writeback_miss 0
Core_2_L1I_prefetch_requested 0
Core_2_L1I_prefetch_dropped 0
Core_2_L1I_prefetch_issued 0
Core_2_L1I_prefetch_filled 0
Core_2_L1I_prefetch_useful 0
Core_2_L1I_prefetch_useless 0
Core_2_L1I_prefetch_late 0
Core_2_L1I_average_miss_latency 88.25997

Core_2_L1I_rq_access 149999952
Core_2_L1I_rq_forward 0
Core_2_L1I_rq_merged 117190367
Core_2_L1I_rq_to_cache 32809585
Core_2_L1I_rq_full 0

Core_2_L1I_wq_access 0
Core_2_L1I_wq_forward 0
Core_2_L1I_wq_merged 0
Core_2_L1I_wq_to_cache 0
Core_2_L1I_wq_full 0

Core_2_L1I_pq_access 0
Core_2_L1I_pq_forward 0
Core_2_L1I_pq_merged 0
Core_2_L1I_pq_to_cache 0
Core_2_L1I_pq_full 0

Core_2_L1I_acc_epochs 180631
Core_2_L1I_acc_level_0 180631
Core_2_L1I_acc_level_1 0
Core_2_L1I_acc_level_2 0
Core_2_L1I_acc_level_3 0
Core_2_L1I_acc_level_4 0
Core_2_L1I_acc_level_5 0
Core_2_L1I_acc_level_6 0
Core_2_L1I_acc_level_7 0
Core_2_L1I_acc_level_8 0
Core_2_L1I_acc_level_9 0

Core_2_L2C_total_access 14179010
Core_2_L2C_total_hit 12857215
Core_2_L2C_total_miss 1321795
Core_2_L2C_loads 7264141
Core_2_L2C_load_hit 6697737
Core_2_L2C_load_miss 566404
Core_2_L2C_RFOs 781242
Core_2_L2C_RFO_hit 533766
Core_2_L2C_RFO_miss 247476
Core_2_L2C_prefetches 4845213
Core_2_L2C_prefetch_hit 4351454
Core_2_L2C_prefetch_miss 493759
Core_2_L2C_writebacks 1288414
Core_2_L2C_writeback_hit 1274258
Core_2_L2C_writeback_miss 14156
Core_2_L2C_prefetch_requested 7549108
Core_2_L2C_prefetch_dropped 0
Core_2_L2C_prefetch_issued 7549108
Core_2_L2C_prefetch_filled 616072
Core_2_L2C_prefetch_useful 524761
Core_2_L2C_prefetch_useless 91103
Core_2_L2C_prefetch_late 21833
Core_2_L2C_average_miss_latency 138.74744

Core_2_L2C_rq_access 8046069
Core_2_L2C_rq_forward 0
Core_2_L2C_rq_merged 0
Core_2_L2C_rq_to_cache 8045383
Core_2_L2C_rq_full 0

Core_2_L2C_wq_access 1288414
Core_2_L2C_wq_forward 704
Core_2_L2C_wq_merged 0
Core_2_L2C_wq_to_cache 1288414
Core_2_L2C_wq_full 0

Core_2_L2C_pq_access 7549108
Core_2_L2C_pq_forward 0
Core_2_L2C_pq_merged 12
Core_2_L2C_pq_to_cache 7549078
Core_2_L2C_pq_full 0

Core_2_L2C_acc_epochs 180631
Core_2_L2C_acc_level_0 47607
Core_2_L2C_acc_level_1 21389
Core_2_L2C_acc_level_2 18622
Core_2_L2C_acc_level_3 14174
Core_2_L2C_acc_level_4 9057
Core_2_L2C_acc_level_5 15897
Core_2_L2C_acc_level_6 9722
Core_2_L2C_acc_level_7 7719
Core_2_L2C_acc_level_8 5889
Core_2_L2C_acc_level_9 30555

Core_2_LLC_total_access 2198614
Core_2_LLC_total_hit 1461011
Core_2_LLC_total_miss 737603
Core_2_LLC_loads 544743
Core_2_LLC_load_hit 403402
Core_2_LLC_load_miss 141341
Core_2_LLC_RFOs 247413
Core_2_LLC_RFO_hit 130319
Core_2_LLC_RFO_miss 117094
Core_2_LLC_prefetches 1001203
Core_2_LLC_prefetch_hit 565287
Core_2_LLC_prefetch_miss 435916
Core_2_LLC_writebacks 405255
Core_2_LLC_writeback_hit 362003
Core_2_LLC_writeback_miss 43252
Core_2_LLC_prefetch_requested 0
Core_2_LLC_prefetch_dropped 0
Core_2_LLC_prefetch_issued 0
Core_2_LLC_prefetch_filled 2662432
Core_2_LLC_prefetch_useful 545714
Core_2_LLC_prefetch_useless 2072845
Core_2_LLC_prefetch_late 18374
Core_2_LLC_average_miss_latency 930.78449

Core_2_LLC_rq_access 3782540
Core_2_LLC_rq_forward 0
Core_2_LLC_rq_merged 0
Core_2_LLC_rq_to_cache 3782387
Core_2_LLC_rq_full 0

Core_2_LLC_wq_access 2086719
Core_2_LLC_wq_forward 164
Core_2_LLC_wq_merged 0
Core_2_LLC_wq_to_cache 2086719
Core_2_LLC_wq_full 0

Core_2_LLC_pq_access 5634811
Core_2_LLC_pq_forward 0
Core_2_LLC_pq_merged 0
Core_2_LLC_pq_to_cache 5634797
Core_2_LLC_pq_full 0

Core_2_LLC_acc_epochs 765232
Core_2_LLC_acc_level_0 649007
Core_2_LLC_acc_level_1 45076
Core_2_LLC_acc_level_2 23755
Core_2_LLC_acc_level_3 11002
Core_2_LLC_acc_level_4 5052
Core_2_LLC_acc_level_5 9816
Core_2_LLC_acc_level_6 3248
Core_2_LLC_acc_level_7 2522
Core_2_LLC_acc_level_8 1698
Core_2_LLC_acc_level_9 14056

Core_2_major_page_fault 0
Core_2_minor_page_fault 18236

Core_3_instructions 150000000
Core_3_cycles 675885041
Core_3_IPC 0.22193

Core_3_branch_prediction_accuracy 96.83348
Core_3_branch_MPKI 5.73417
Core_3_average_ROB_occupancy_at_mispredict 80.53621

Core_3_L1D_total_access 23725923
Core_3_L1D_total_hit 20705520
Core_3_L1D_total_miss 3020403
Core_3_L1D_loads 13842545
Core_3_L1D_load_hit 11642120
Core_3_L1D_load_miss 2200425
Core_3_L1D_RFOs 9883378
Core_3_L1D_RFO_hit 9063400
Core_3_L1D_RFO_miss 819978
Core_3_L1D_prefetches 0
Core_3_L1D_prefetch_hit 0
Core_3_L1D_prefetch_miss 0
Core_3_L1D_writebacks 0
Core_3_L1D_writeback_hit 0
Core_3_L1D_writeback_miss 0
Core_3_L1D_prefetch_requested 0
Core_3_L1D_prefetch_dropped 0
Core_3_L1D_prefetch_issued 0
Core_3_L1D_prefetch_filled 0
Core_3_L1D_prefetch_useful 0
Core_3_L1D_prefetch_useless 0
Core_3_L1D_prefetch_late 0
Core_3_L1D_average_miss_latency 99.13082

Core_3_L1D_rq_access 29203757
Core_3_L1D_rq_forward 0
Core_3_L1D_rq_merged 13247974
Core_3_L1D_rq_to_cache 15952636
Core_3_L1D_rq_full 0

Core_3_L1D_wq_access 14438885
Core_3_L1D_wq_forward 3147
Core_3_L1D_wq_merged 42169
Core_3_L1D_wq_to_cache 14396716
Core_3_L1D_wq_full 0

Core_3_L1D_pq_access 0
Core_3_L1D_pq_forward 0
Core_3_L1D_pq_merged 0
Core_3_L1D_pq_to_cache 0
Core_3_L1D_pq_full 0

Core_3_L1D_acc_epochs 192830
Core_3_L1D_acc_level_0 192830
Core_3_L1D_acc_level_1 0
Core_3_L1D_acc_level_2 0
Core_3_L1D_acc_level_3 0
Core_3_L1D_acc_level_4 0
Core_3_L1D_acc_level_5 0
Core_3_L1D_acc_level_6 0
Core_3_L1D_acc_level_7 0
Core_3_L1D_acc_level_8 0
Core_3_L1D_acc_level_9 0

Core_3_L1I_total_access 32217520
Core_3_L1I_total_hit 26203870
Core_3_L1I_total_miss 6013650
Core_3_L1I_loads 32217520
Core_3_L1I_load_hit 26203870
Core_3_L1I_load_miss 6013650
Core_3_L1I_RFOs 0
Core_3_L1I_RFO_hit 0
Core_3_L1I_RFO_miss 0
Core_3_L1I_prefetches 0
Core_3_L1I_prefetch_hit 0
Core_3_L1I_prefetch_miss 0
Core_3_L1I_writebacks 0
Core_3_L1I_writeback_hit 0
Core_3_L1I_writeback_miss 0
Core_3_L1I_prefetch_requested 0
Core_3_L1I_prefetch_dropped 0
Core_3_L1I_prefetch_issued 0
Core_3_L1I_prefetch_filled 0
Core_3_L1I_prefetch_useful 0
Core_3_L1I_prefetch_useless 0
Core_3_L1I_prefetch_late 0
Core_3_L1I_average_miss_latency 94.98115

Core_3_L1I_rq_access 166746350
Core_3_L1I_rq_forward 0
Core_3_L1I_rq_merged 127029944
Core_3_L1I_rq_to_cache 39716406
Core_3_L1I_rq_full 0

Core_3_L1I_wq_access 0
Core_3_L1I_wq_forward 0
Core_3_L1I_wq_merged 0
Core_3_L1I_wq_to_cache 0
Core_3_L1I_wq_full 0

Core_3_L1I_pq_access 0
Core_3_L1I_pq_forward 0
Core_3_L1I_pq_merged 0
Core_3_L1I_pq_to_cache 0
Core_3_L1I_pq_full 0

Core_3_L1I_acc_epochs 192830
Core_3_L1I_acc_level_0 192830
Core_3_L1I_acc_level_1 0
Core_3_L1I_acc_level_2 0
Core_3_L1I_acc_level_3 0
Core_3_L1I_acc_level_4 0
Core_3_L1I_acc_level_5 0
Core_3_L1I_acc_level_6 0
Core_3_L1I_acc_level_7 0
Core_3_L1I_acc_level_8 0
Core_3_L1I_acc_level_9 0

Core_3_L2C_total_access 14443401
Core_3_L2C_total_hit 12979917
Core_3_L2C_total_miss 1463484
Core_3_L2C_loads 8213815
Core_3_L2C_load_hit 7654075
Core_3_L2C_load_miss 559740
Core_3_L2C_RFOs 819590
Core_3_L2C_RFO_hit 443947
Core_3_L2C_RFO_miss 375643
Core_3_L2C_prefetches 4255648
Core_3_L2C_prefetch_hit 3740626
Core_3_L2C_prefetch_miss 515022
Core_3_L2C_writebacks 1154348
Core_3_L2C_writeback_hit 1141269
Core_3_L2C_writeback_miss 13079
Core_3_L2C_prefetch_requested 7081572
Core_3_L2C_prefetch_dropped 0
Core_3_L2C_prefetch_issued 7081572
Core_3_L2C_prefetch_filled 763994
Core_3_L2C_prefetch_useful 661438
Core_3_L2C_prefetch_useless 102382
Core_3_L2C_prefetch_late 36862
Core_3_L2C_average_miss_latency 147.16550

Core_3_L2C_rq_access 10093072
Core_3_L2C_rq_forward 0
Core_3_L2C_rq_merged 0
Core_3_L2C_rq_to_cache 10092352
Core_3_L2C_rq_full 0

Core_3_L2C_wq_access 1291490
Core_3_L2C_wq_forward 733
Core_3_L2C_wq_merged 0
Core_3_L2C_wq_to_cache 1291490
Core_3_L2C_wq_full 0

Core_3_L2C_pq_access 7081572
Core_3_L2C_pq_forward 0
Core_3_L2C_pq_merged 0
Core_3_L2C_pq_to_cache 7081559
Core_3_L2C_pq_full 0

Core_3_L2C_acc_epochs 192830
Core_3_L2C_acc_level_0 82863
Core_3_L2C_acc_level_1 20600
Core_3_L2C_acc_level_2 16072
Core_3_L2C_acc_level_3 10555
Core_3_L2C_acc_level_4 6799
Core_3_L2C_acc_level_5 12084
Core_3_L2C_acc_level_6 6183
Core_3_L2C_acc_level_7 5128
Core_3_L2C_acc_level_8 4093
Core_3_L2C_acc_level_9 28453

Core_3_LLC_total_access 2413826
Core_3_LLC_total_hit 1508145
Core_3_LLC_total_miss 905681
Core_3_LLC_loads 527001
Core_3_LLC_load_hit 349506
Core_3_LLC_load_miss 177495
Core_3_LLC_RFOs 375565
Core_3_LLC_RFO_hit 228664
Core_3_LLC_RFO_miss 146901
Core_3_LLC_prefetches 1013553
Core_3_LLC_prefetch_hit 492680
Core_3_LLC_prefetch_miss 520873
Core_3_LLC_writebacks 497707
Core_3_LLC_writeback_hit 437295
Core_3_LLC_writeback_miss 60412
Core_3_LLC_prefetch_requested 0
Core_3_LLC_prefetch_dropped 0
Core_3_LLC_prefetch_issued 0
Core_3_LLC_prefetch_filled 2662432
Core_3_LLC_prefetch_useful 545714
Core_3_LLC_prefetch_useless 2072845
Core_3_LLC_prefetch_late 18374
Core_3_LLC_average_miss_latency 758.04774

Core_3_LLC_rq_access 3782540
Core_3_LLC_rq_forward 0
Core_3_LLC_rq_merged 0
Core_3_LLC_rq_to_cache 3782387
Core_3_LLC_rq_full 0

Core_3_LLC_wq_access 2086719
Core_3_LLC_wq_forward 164
Core_3_LLC_wq_merged 0
Core_3_LLC_wq_to_cache 2086719
Core_3_LLC_wq_full 0

Core_3_LLC_pq_access 5634811
Core_3_LLC_pq_forward 0
Core_3_LLC_pq_merged 0
Core_3_LLC_pq_to_cache 5634797
Core_3_LLC_pq_full 0

Core_3_LLC_acc_epochs 765232
Core_3_LLC_acc_level_0 649007
Core_3_LLC_acc_level_1 45076
Core_3_LLC_acc_level_2 23755
Core_3_LLC_acc_level_3 11002
Core_3_LLC_acc_level_4 5052
Core_3_LLC_acc_level_5 9816
Core_3_LLC_acc_level_6 3248
Core_3_LLC_acc_level_7 2522
Core_3_LLC_acc_level_8 1698
Core_3_LLC_acc_level_9 14056

Core_3_major_page_fault 0
Core_3_minor_page_fault 24231

[Bingo] PHT Access: 2605785
[Bingo] PHT Hit PC+Addr: 1721095
[Bingo] PHT Hit PC+Offs: 189953
[Bingo] PHT Miss: 694737
[Bingo] Prefetch PC+Addr: 0
[Bingo] Prefetch PC+Offs: 0
[Bingo] Useful PC+Addr: 0
[Bingo] Useful PC+Offs: 0
[Bingo] Useless PC+Addr: 0
[Bingo] Useless PC+Offs: 0
[Bingo] L1 Prefetch per Region: 0.00000
[Bingo] L2 Prefetch per Region: 4.20544
[Bingo] L3 Prefetch per Region: 0.37634
[Bingo] No Prefetch per Region: 27.41822
[Bingo] Number of Voters Mean: 3.49355
[Bingo] Number of Voters SD: 3.42475

[Bingo] PHT Access: 2602432
[Bingo] PHT Hit PC+Addr: 1702331
[Bingo] PHT Hit PC+Offs: 181026
[Bingo] PHT Miss: 719075
[Bingo] Prefetch PC+Addr: 0
[Bingo] Prefetch PC+Offs: 0
[Bingo] Useful PC+Addr: 0
[Bingo] Useful PC+Offs: 0
[Bingo] Useless PC+Addr: 0
[Bingo] Useless PC+Offs: 0
[Bingo] L1 Prefetch per Region: 0.00000
[Bingo] L2 Prefetch per Region: 4.21169
[Bingo] L3 Prefetch per Region: 0.37756
[Bingo] No Prefetch per Region: 27.41075
[Bingo] Number of Voters Mean: 3.58353
[Bingo] Number of Voters SD: 3.52450

[Bingo] PHT Access: 2467178
[Bingo] PHT Hit PC+Addr: 1694190
[Bingo] PHT Hit PC+Offs: 161546
[Bingo] PHT Miss: 611442
[Bingo] Prefetch PC+Addr: 0
[Bingo] Prefetch PC+Offs: 0
[Bingo] Useful PC+Addr: 0
[Bingo] Useful PC+Offs: 0
[Bingo] Useless PC+Addr: 0
[Bingo] Useless PC+Offs: 0
[Bingo] L1 Prefetch per Region: 0.00000
[Bingo] L2 Prefetch per Region: 4.70312
[Bingo] L3 Prefetch per Region: 0.37340
[Bingo] No Prefetch per Region: 26.92348
[Bingo] Number of Voters Mean: 4.64383
[Bingo] Number of Voters SD: 4.20667

[Bingo] PHT Access: 2539506
[Bingo] PHT Hit PC+Addr: 1679651
[Bingo] PHT Hit PC+Offs: 186999
[Bingo] PHT Miss: 672856
[Bingo] Prefetch PC+Addr: 0
[Bingo] Prefetch PC+Offs: 0
[Bingo] Useful PC+Addr: 0
[Bingo] Useful PC+Offs: 0
[Bingo] Useless PC+Addr: 0
[Bingo] Useless PC+Offs: 0
[Bingo] L1 Prefetch per Region: 0.00000
[Bingo] L2 Prefetch per Region: 4.40173
[Bingo] L3 Prefetch per Region: 0.39744
[Bingo] No Prefetch per Region: 27.20084
[Bingo] Number of Voters Mean: 3.70257
[Bingo] Number of Voters SD: 3.55512

Channel_0_RQ_row_buffer_hit 613079
Channel_0_RQ_row_buffer_miss 1076674
Channel_0_WQ_row_buffer_hit 39307
Channel_0_WQ_row_buffer_miss 357085
Channel_0_WQ_full 0
Channel_0_dbus_congested 1073338

Channel_1_RQ_row_buffer_hit 611309
Channel_1_RQ_row_buffer_miss 1081089
Channel_1_WQ_row_buffer_hit 39289
Channel_1_WQ_row_buffer_miss 357528
Channel_1_WQ_full 0
Channel_1_dbus_congested 1076485

avg_congested_cycle 10

DRAM_bw_pochs 3060926
DRAM_bw_level_0 2875953
DRAM_bw_level_1 100384
DRAM_bw_level_2 37961
DRAM_bw_level_3 46628
