*************************************************
   ChampSim Multicore Out-of-Order Simulator
   Last compiled: Mar 31 2025 20:14:32
*************************************************
parsing config file: /data3/config/spp_ppf_dev.ini

trace_0 /data3/STREAMING/traces/streaming_phase3_core0.trace.xz
trace_1 /data3/STREAMING/traces/streaming_phase3_core1.trace.xz
trace_2 /data3/STREAMING/traces/streaming_phase3_core2.trace.xz
trace_3 /data3/STREAMING/traces/streaming_phase3_core3.trace.xz
adding L2C_PREFETCHER: SPP_PPF_dev
Initialize SIGNATURE TABLE
ST_SET: 1
ST_WAY: 256
ST_TAG_BIT: 16
ST_TAG_MASK: ffff

Initialize PATTERN TABLE
PT_SET: 2048
PT_WAY: 4
SIG_DELTA_BIT: 7
C_SIG_BIT: 4
C_DELTA_BIT: 4

Initialize PREFETCH FILTER
FILTER_SET: 1024

Initialize PERCEPTRON
PERC_ENTRIES: 4096
PERC_FEATURES: 9
Initialize SIGNATURE TABLE
ST_SET: 1
ST_WAY: 256
ST_TAG_BIT: 16
ST_TAG_MASK: ffff

Initialize PATTERN TABLE
PT_SET: 2048
PT_WAY: 4
SIG_DELTA_BIT: 7
C_SIG_BIT: 4
C_DELTA_BIT: 4

Initialize PREFETCH FILTER
FILTER_SET: 1024

Initialize PERCEPTRON
PERC_ENTRIES: 4096
PERC_FEATURES: 9
PERC_THRESH_HI: -5
PERC_THRESH_LO: -15

adding L2C_PREFETCHER: SPP_PPF_dev
Initialize SIGNATURE TABLE
ST_SET: 1
ST_WAY: 256
ST_TAG_BIT: 16
ST_TAG_MASK: ffff

Initialize PATTERN TABLE
PT_SET: 2048
PT_WAY: 4
SIG_DELTA_BIT: 7
C_SIG_BIT: 4
C_DELTA_BIT: 4

Initialize PREFETCH FILTER
FILTER_SET: 1024

Initialize PERCEPTRON
PERC_ENTRIES: 4096
PERC_FEATURES: 9
Initialize SIGNATURE TABLE
ST_SET: 1
ST_WAY: 256
ST_TAG_BIT: 16
ST_TAG_MASK: ffff

Initialize PATTERN TABLE
PT_SET: 2048
PT_WAY: 4
SIG_DELTA_BIT: 7
C_SIG_BIT: 4
C_DELTA_BIT: 4

Initialize PREFETCH FILTER
FILTER_SET: 1024

Initialize PERCEPTRON
PERC_ENTRIES: 4096
PERC_FEATURES: 9
PERC_THRESH_HI: -5
PERC_THRESH_LO: -15

adding L2C_PREFETCHER: SPP_PPF_dev
Initialize SIGNATURE TABLE
ST_SET: 1
ST_WAY: 256
ST_TAG_BIT: 16
ST_TAG_MASK: ffff

Initialize PATTERN TABLE
PT_SET: 2048
PT_WAY: 4
SIG_DELTA_BIT: 7
C_SIG_BIT: 4
C_DELTA_BIT: 4

Initialize PREFETCH FILTER
FILTER_SET: 1024

Initialize PERCEPTRON
PERC_ENTRIES: 4096
PERC_FEATURES: 9
Initialize SIGNATURE TABLE
ST_SET: 1
ST_WAY: 256
ST_TAG_BIT: 16
ST_TAG_MASK: ffff

Initialize PATTERN TABLE
PT_SET: 2048
PT_WAY: 4
SIG_DELTA_BIT: 7
C_SIG_BIT: 4
C_DELTA_BIT: 4

Initialize PREFETCH FILTER
FILTER_SET: 1024

Initialize PERCEPTRON
PERC_ENTRIES: 4096
PERC_FEATURES: 9
PERC_THRESH_HI: -5
PERC_THRESH_LO: -15

adding L2C_PREFETCHER: SPP_PPF_dev
Initialize SIGNATURE TABLE
ST_SET: 1
ST_WAY: 256
ST_TAG_BIT: 16
ST_TAG_MASK: ffff

Initialize PATTERN TABLE
PT_SET: 2048
PT_WAY: 4
SIG_DELTA_BIT: 7
C_SIG_BIT: 4
C_DELTA_BIT: 4

Initialize PREFETCH FILTER
FILTER_SET: 1024

Initialize PERCEPTRON
PERC_ENTRIES: 4096
PERC_FEATURES: 9
Initialize SIGNATURE TABLE
ST_SET: 1
ST_WAY: 256
ST_TAG_BIT: 16
ST_TAG_MASK: ffff

Initialize PATTERN TABLE
PT_SET: 2048
PT_WAY: 4
SIG_DELTA_BIT: 7
C_SIG_BIT: 4
C_DELTA_BIT: 4

Initialize PREFETCH FILTER
FILTER_SET: 1024

Initialize PERCEPTRON
PERC_ENTRIES: 4096
PERC_FEATURES: 9
PERC_THRESH_HI: -5
PERC_THRESH_LO: -15

Initialize SHIP state
warmup_instructions 50000000
simulation_instructions 150000000
champsim_seed 8858
measure_ipc 0
measure_ipc_epoch 1000
measure_dram_bw 1
measure_dram_bw_epoch 256
measure_cache_acc 1
measure_cache_acc_epoch 1024
l1d_perfect 0
l2c_perfect 0
llc_perfect 0
l1d_semi_perfect 0
l2c_semi_perfect 0
llc_semi_perfect 0
semi_perfect_cache_page_buffer_size 64

num_cpus 4
cpu_freq 4000
dram_io_freq 2400
page_size 4096
block_size 64
max_read_per_cycle 8
max_fill_per_cycle 1
dram_channels 2
log2_dram_channels 1
dram_ranks 1
dram_banks 8
dram_rows 65536
dram_columns 128
dram_row_size 8
dram_size 8192
dram_pages 2097152

fetch_width 6
decode_width 6
exec_width 4
lq_width 2
sq_width 2
retire_width 4
scheduler_size 128
branch_mispredict_penalty 20
rob_size 256
lq_size 72
sq_size 56
num_instr_destinations_sparc 4
num_instr_destinations 2
num_instr_sources 4

itlb_set 16
itlb_way 8
itlb_rq_size 16
itlb_wq_size 16
itlb_pq_size 0
itlb_mshr_size 8
itlb_latency 1

dtlb_set 16
dtlb_way 4
dtlb_rq_size 16
dtlb_wq_size 16
dtlb_pq_size 0
dtlb_mshr_size 8
dtlb_latency 1

stlb_set 128
stlb_way 12
stlb_rq_size 32
stlb_wq_size 32
stlb_pq_size 0
stlb_mshr_size 16
stlb_latency 8

l1i_size 32
l1i_set 64
l1i_way 8
l1i_rq_size 64
l1i_wq_size 64
l1i_pq_size 8
l1i_mshr_size 8
l1i_latency 1

l1d_size 32
l1d_set 64
l1d_way 8
l1d_rq_size 64
l1d_wq_size 64
l1d_pq_size 8
l1d_mshr_size 16
l1d_latency 4

l2c_size 256
l2c_set 512
l2c_way 8
l2c_rq_size 32
l2c_wq_size 32
l2c_pq_size 32
l2c_mshr_size 32
l2c_latency 10

llc_size 8192
llc_set 8192
llc_way 16
llc_rq_size 128
llc_wq_size 128
llc_pq_size 128
llc_mshr_size 256
llc_latency 20

dram_channel_width 8
dram_wq_size 64
dram_rq_size 64
tRP 15
tRCD 15
tCAS 12.5
dram_dbus_turn_around_time 30
dram_write_high_wm 56
dram_write_low_wm 48
min_dram_writes_per_switch 16
dram_mtps 2400
dram_dbus_return_time 13


Heartbeat CPU  3 instructions:    1000000 cycles:     640645 heartbeat IPC: 1.56093 cumulative IPC: 1.56093 (Simulation time: 0 hr 0 min 7 sec) 
Heartbeat CPU  0 instructions:    1000000 cycles:     656537 heartbeat IPC: 1.52314 cumulative IPC: 1.52314 (Simulation time: 0 hr 0 min 7 sec) 
Heartbeat CPU  1 instructions:    1000001 cycles:     673423 heartbeat IPC: 1.48495 cumulative IPC: 1.48495 (Simulation time: 0 hr 0 min 7 sec) 
Heartbeat CPU  2 instructions:    1000000 cycles:     761998 heartbeat IPC: 1.31234 cumulative IPC: 1.31234 (Simulation time: 0 hr 0 min 8 sec) 
Heartbeat CPU  3 instructions:    2000000 cycles:    1208867 heartbeat IPC: 1.75988 cumulative IPC: 1.65444 (Simulation time: 0 hr 0 min 14 sec) 
Heartbeat CPU  1 instructions:    2000001 cycles:    1221220 heartbeat IPC: 1.82549 cumulative IPC: 1.63771 (Simulation time: 0 hr 0 min 15 sec) 
Heartbeat CPU  0 instructions:    2000002 cycles:    1223825 heartbeat IPC: 1.76278 cumulative IPC: 1.63422 (Simulation time: 0 hr 0 min 15 sec) 
Heartbeat CPU  2 instructions:    2000002 cycles:    1394614 heartbeat IPC: 1.58074 cumulative IPC: 1.43409 (Simulation time: 0 hr 0 min 17 sec) 
Heartbeat CPU  1 instructions:    3000003 cycles:    1743382 heartbeat IPC: 1.91512 cumulative IPC: 1.72080 (Simulation time: 0 hr 0 min 22 sec) 
Heartbeat CPU  3 instructions:    3000002 cycles:    1751825 heartbeat IPC: 1.84177 cumulative IPC: 1.71250 (Simulation time: 0 hr 0 min 22 sec) 
Heartbeat CPU  0 instructions:    3000002 cycles:    1773427 heartbeat IPC: 1.81950 cumulative IPC: 1.69164 (Simulation time: 0 hr 0 min 22 sec) 
Heartbeat CPU  2 instructions:    3000002 cycles:    2015872 heartbeat IPC: 1.60964 cumulative IPC: 1.48819 (Simulation time: 0 hr 0 min 26 sec) 
Heartbeat CPU  1 instructions:    4000000 cycles:    2274006 heartbeat IPC: 1.88457 cumulative IPC: 1.75901 (Simulation time: 0 hr 0 min 30 sec) 
Heartbeat CPU  3 instructions:    4000000 cycles:    2289660 heartbeat IPC: 1.85930 cumulative IPC: 1.74698 (Simulation time: 0 hr 0 min 30 sec) 
Heartbeat CPU  0 instructions:    4000000 cycles:    2321422 heartbeat IPC: 1.82483 cumulative IPC: 1.72308 (Simulation time: 0 hr 0 min 30 sec) 
Heartbeat CPU  2 instructions:    4000000 cycles:    2625164 heartbeat IPC: 1.64125 cumulative IPC: 1.52371 (Simulation time: 0 hr 0 min 35 sec) 
Heartbeat CPU  1 instructions:    5000000 cycles:    2810004 heartbeat IPC: 1.86568 cumulative IPC: 1.77936 (Simulation time: 0 hr 0 min 38 sec) 
Heartbeat CPU  3 instructions:    5000003 cycles:    2816488 heartbeat IPC: 1.89816 cumulative IPC: 1.77526 (Simulation time: 0 hr 0 min 38 sec) 
Heartbeat CPU  0 instructions:    5000000 cycles:    2842593 heartbeat IPC: 1.91876 cumulative IPC: 1.75896 (Simulation time: 0 hr 0 min 38 sec) 
Heartbeat CPU  2 instructions:    5000000 cycles:    3216110 heartbeat IPC: 1.69220 cumulative IPC: 1.55467 (Simulation time: 0 hr 0 min 44 sec) 
Heartbeat CPU  3 instructions:    6000003 cycles:    3308488 heartbeat IPC: 2.03252 cumulative IPC: 1.81352 (Simulation time: 0 hr 0 min 45 sec) 
Heartbeat CPU  0 instructions:    6000000 cycles:    3348014 heartbeat IPC: 1.97855 cumulative IPC: 1.79211 (Simulation time: 0 hr 0 min 46 sec) 
Heartbeat CPU  1 instructions:    6000001 cycles:    3353512 heartbeat IPC: 1.83990 cumulative IPC: 1.78917 (Simulation time: 0 hr 0 min 46 sec) 
Heartbeat CPU  2 instructions:    6000003 cycles:    3808223 heartbeat IPC: 1.68887 cumulative IPC: 1.57554 (Simulation time: 0 hr 0 min 53 sec) 
Heartbeat CPU  3 instructions:    7000002 cycles:    3815869 heartbeat IPC: 1.97090 cumulative IPC: 1.83444 (Simulation time: 0 hr 0 min 53 sec) 
Heartbeat CPU  0 instructions:    7000003 cycles:    3861021 heartbeat IPC: 1.94930 cumulative IPC: 1.81299 (Simulation time: 0 hr 0 min 54 sec) 
Heartbeat CPU  1 instructions:    7000001 cycles:    3890933 heartbeat IPC: 1.86074 cumulative IPC: 1.79905 (Simulation time: 0 hr 0 min 54 sec) 
Heartbeat CPU  3 instructions:    8000000 cycles:    4329547 heartbeat IPC: 1.94674 cumulative IPC: 1.84777 (Simulation time: 0 hr 1 min 1 sec) 
Heartbeat CPU  0 instructions:    8000000 cycles:    4382772 heartbeat IPC: 1.91662 cumulative IPC: 1.82533 (Simulation time: 0 hr 1 min 2 sec) 
Heartbeat CPU  1 instructions:    8000000 cycles:    4416881 heartbeat IPC: 1.90133 cumulative IPC: 1.81123 (Simulation time: 0 hr 1 min 2 sec) 
Heartbeat CPU  2 instructions:    7000001 cycles:    4429148 heartbeat IPC: 1.61050 cumulative IPC: 1.58044 (Simulation time: 0 hr 1 min 2 sec) 
Heartbeat CPU  3 instructions:    9000002 cycles:    4847567 heartbeat IPC: 1.93043 cumulative IPC: 1.85660 (Simulation time: 0 hr 1 min 8 sec) 
Heartbeat CPU  0 instructions:    9000003 cycles:    4936256 heartbeat IPC: 1.80674 cumulative IPC: 1.82324 (Simulation time: 0 hr 1 min 10 sec) 
Heartbeat CPU  1 instructions:    9000001 cycles:    4948204 heartbeat IPC: 1.88210 cumulative IPC: 1.81884 (Simulation time: 0 hr 1 min 10 sec) 
Heartbeat CPU  2 instructions:    8000000 cycles:    5034476 heartbeat IPC: 1.65200 cumulative IPC: 1.58904 (Simulation time: 0 hr 1 min 11 sec) 
Heartbeat CPU  3 instructions:   10000001 cycles:    5390809 heartbeat IPC: 1.84080 cumulative IPC: 1.85501 (Simulation time: 0 hr 1 min 17 sec) 
Heartbeat CPU  0 instructions:   10000002 cycles:    5470912 heartbeat IPC: 1.87036 cumulative IPC: 1.82785 (Simulation time: 0 hr 1 min 18 sec) 
Heartbeat CPU  1 instructions:   10000001 cycles:    5486179 heartbeat IPC: 1.85882 cumulative IPC: 1.82276 (Simulation time: 0 hr 1 min 18 sec) 
Heartbeat CPU  2 instructions:    9000000 cycles:    5599813 heartbeat IPC: 1.76886 cumulative IPC: 1.60720 (Simulation time: 0 hr 1 min 20 sec) 
Heartbeat CPU  3 instructions:   11000002 cycles:    5932552 heartbeat IPC: 1.84590 cumulative IPC: 1.85418 (Simulation time: 0 hr 1 min 25 sec) 
Heartbeat CPU  0 instructions:   11000000 cycles:    5941111 heartbeat IPC: 2.12675 cumulative IPC: 1.85151 (Simulation time: 0 hr 1 min 25 sec) 
Heartbeat CPU  1 instructions:   11000000 cycles:    6007402 heartbeat IPC: 1.91856 cumulative IPC: 1.83107 (Simulation time: 0 hr 1 min 26 sec) 
Heartbeat CPU  2 instructions:   10000003 cycles:    6160544 heartbeat IPC: 1.78339 cumulative IPC: 1.62323 (Simulation time: 0 hr 1 min 29 sec) 
Heartbeat CPU  3 instructions:   12000000 cycles:    6446568 heartbeat IPC: 1.94546 cumulative IPC: 1.86146 (Simulation time: 0 hr 1 min 34 sec) 
Heartbeat CPU  0 instructions:   12000000 cycles:    6455302 heartbeat IPC: 1.94480 cumulative IPC: 1.85894 (Simulation time: 0 hr 1 min 34 sec) 
Heartbeat CPU  2 instructions:   11000003 cycles:    6480087 heartbeat IPC: 3.12947 cumulative IPC: 1.69751 (Simulation time: 0 hr 1 min 34 sec) 
Heartbeat CPU  1 instructions:   12000000 cycles:    6497931 heartbeat IPC: 2.03862 cumulative IPC: 1.84674 (Simulation time: 0 hr 1 min 34 sec) 
Heartbeat CPU  2 instructions:   12000000 cycles:    6987131 heartbeat IPC: 1.97221 cumulative IPC: 1.71744 (Simulation time: 0 hr 1 min 42 sec) 
Heartbeat CPU  0 instructions:   13000003 cycles:    6997010 heartbeat IPC: 1.84602 cumulative IPC: 1.85794 (Simulation time: 0 hr 1 min 42 sec) 
Heartbeat CPU  1 instructions:   13000002 cycles:    6997171 heartbeat IPC: 2.00305 cumulative IPC: 1.85789 (Simulation time: 0 hr 1 min 42 sec) 
Heartbeat CPU  3 instructions:   13000000 cycles:    6998373 heartbeat IPC: 1.81223 cumulative IPC: 1.85757 (Simulation time: 0 hr 1 min 42 sec) 
Heartbeat CPU  3 instructions:   14000003 cycles:    7532262 heartbeat IPC: 1.87305 cumulative IPC: 1.85867 (Simulation time: 0 hr 1 min 50 sec) 
Heartbeat CPU  0 instructions:   14000003 cycles:    7533296 heartbeat IPC: 1.86468 cumulative IPC: 1.85842 (Simulation time: 0 hr 1 min 50 sec) 
Heartbeat CPU  1 instructions:   14000001 cycles:    7539441 heartbeat IPC: 1.84410 cumulative IPC: 1.85690 (Simulation time: 0 hr 1 min 50 sec) 
Heartbeat CPU  2 instructions:   13000001 cycles:    7548936 heartbeat IPC: 1.77998 cumulative IPC: 1.72210 (Simulation time: 0 hr 1 min 50 sec) 
Heartbeat CPU  0 instructions:   15000000 cycles:    8047154 heartbeat IPC: 1.94606 cumulative IPC: 1.86401 (Simulation time: 0 hr 1 min 58 sec) 
Heartbeat CPU  1 instructions:   15000003 cycles:    8075136 heartbeat IPC: 1.86674 cumulative IPC: 1.85755 (Simulation time: 0 hr 1 min 58 sec) 
Heartbeat CPU  3 instructions:   15000003 cycles:    8101865 heartbeat IPC: 1.75561 cumulative IPC: 1.85143 (Simulation time: 0 hr 1 min 58 sec) 
Heartbeat CPU  2 instructions:   14000002 cycles:    8127882 heartbeat IPC: 1.72728 cumulative IPC: 1.72247 (Simulation time: 0 hr 1 min 59 sec) 
Heartbeat CPU  0 instructions:   16000000 cycles:    8579876 heartbeat IPC: 1.87715 cumulative IPC: 1.86483 (Simulation time: 0 hr 2 min 6 sec) 
Heartbeat CPU  1 instructions:   16000000 cycles:    8617339 heartbeat IPC: 1.84432 cumulative IPC: 1.85672 (Simulation time: 0 hr 2 min 6 sec) 
Heartbeat CPU  3 instructions:   16000000 cycles:    8638149 heartbeat IPC: 1.86468 cumulative IPC: 1.85225 (Simulation time: 0 hr 2 min 6 sec) 
Heartbeat CPU  2 instructions:   15000002 cycles:    8690291 heartbeat IPC: 1.77807 cumulative IPC: 1.72606 (Simulation time: 0 hr 2 min 7 sec) 
Heartbeat CPU  0 instructions:   17000001 cycles:    9082588 heartbeat IPC: 1.98921 cumulative IPC: 1.87171 (Simulation time: 0 hr 2 min 13 sec) 
Heartbeat CPU  1 instructions:   17000003 cycles:    9161394 heartbeat IPC: 1.83806 cumulative IPC: 1.85561 (Simulation time: 0 hr 2 min 14 sec) 
Heartbeat CPU  3 instructions:   17000002 cycles:    9183873 heartbeat IPC: 1.83243 cumulative IPC: 1.85107 (Simulation time: 0 hr 2 min 15 sec) 
Heartbeat CPU  2 instructions:   16000000 cycles:    9244221 heartbeat IPC: 1.80528 cumulative IPC: 1.73081 (Simulation time: 0 hr 2 min 15 sec) 
Heartbeat CPU  0 instructions:   18000001 cycles:    9628167 heartbeat IPC: 1.83292 cumulative IPC: 1.86951 (Simulation time: 0 hr 2 min 21 sec) 
Heartbeat CPU  1 instructions:   18000001 cycles:    9683387 heartbeat IPC: 1.91573 cumulative IPC: 1.85885 (Simulation time: 0 hr 2 min 22 sec) 
Heartbeat CPU  3 instructions:   18000001 cycles:    9699444 heartbeat IPC: 1.93960 cumulative IPC: 1.85578 (Simulation time: 0 hr 2 min 22 sec) 
Heartbeat CPU  2 instructions:   17000002 cycles:    9789506 heartbeat IPC: 1.83391 cumulative IPC: 1.73655 (Simulation time: 0 hr 2 min 24 sec) 
Heartbeat CPU  0 instructions:   19000002 cycles:   10138051 heartbeat IPC: 1.96123 cumulative IPC: 1.87413 (Simulation time: 0 hr 2 min 29 sec) 
Heartbeat CPU  1 instructions:   19000000 cycles:   10216472 heartbeat IPC: 1.87587 cumulative IPC: 1.85974 (Simulation time: 0 hr 2 min 30 sec) 
Heartbeat CPU  3 instructions:   19000000 cycles:   10239760 heartbeat IPC: 1.85077 cumulative IPC: 1.85551 (Simulation time: 0 hr 2 min 31 sec) 
Heartbeat CPU  2 instructions:   18000003 cycles:   10347258 heartbeat IPC: 1.79291 cumulative IPC: 1.73959 (Simulation time: 0 hr 2 min 32 sec) 
Heartbeat CPU  0 instructions:   20000000 cycles:   10643886 heartbeat IPC: 1.97693 cumulative IPC: 1.87901 (Simulation time: 0 hr 2 min 37 sec) 
Heartbeat CPU  1 instructions:   20000000 cycles:   10723367 heartbeat IPC: 1.97280 cumulative IPC: 1.86509 (Simulation time: 0 hr 2 min 38 sec) 
Heartbeat CPU  3 instructions:   20000000 cycles:   10779007 heartbeat IPC: 1.85444 cumulative IPC: 1.85546 (Simulation time: 0 hr 2 min 39 sec) 
Heartbeat CPU  2 instructions:   19000000 cycles:   10886722 heartbeat IPC: 1.85369 cumulative IPC: 1.74525 (Simulation time: 0 hr 2 min 41 sec) 
Heartbeat CPU  0 instructions:   21000003 cycles:   11224892 heartbeat IPC: 1.72116 cumulative IPC: 1.87084 (Simulation time: 0 hr 2 min 45 sec) 
Heartbeat CPU  1 instructions:   21000003 cycles:   11254831 heartbeat IPC: 1.88160 cumulative IPC: 1.86587 (Simulation time: 0 hr 2 min 46 sec) 
Heartbeat CPU  3 instructions:   21000001 cycles:   11414850 heartbeat IPC: 1.57272 cumulative IPC: 1.83971 (Simulation time: 0 hr 2 min 48 sec) 
Heartbeat CPU  2 instructions:   20000000 cycles:   11450380 heartbeat IPC: 1.77413 cumulative IPC: 1.74667 (Simulation time: 0 hr 2 min 49 sec) 
Heartbeat CPU  0 instructions:   22000002 cycles:   11736474 heartbeat IPC: 1.95472 cumulative IPC: 1.87450 (Simulation time: 0 hr 2 min 53 sec) 
Heartbeat CPU  1 instructions:   22000001 cycles:   11777601 heartbeat IPC: 1.91288 cumulative IPC: 1.86795 (Simulation time: 0 hr 2 min 54 sec) 
Heartbeat CPU  3 instructions:   22000003 cycles:   11928774 heartbeat IPC: 1.94582 cumulative IPC: 1.84428 (Simulation time: 0 hr 2 min 56 sec) 
Heartbeat CPU  2 instructions:   21000002 cycles:   12003613 heartbeat IPC: 1.80756 cumulative IPC: 1.74947 (Simulation time: 0 hr 2 min 57 sec) 
Heartbeat CPU  0 instructions:   23000000 cycles:   12274042 heartbeat IPC: 1.86023 cumulative IPC: 1.87387 (Simulation time: 0 hr 3 min 1 sec) 
Heartbeat CPU  1 instructions:   23000000 cycles:   12417596 heartbeat IPC: 1.56251 cumulative IPC: 1.85221 (Simulation time: 0 hr 3 min 3 sec) 
Heartbeat CPU  3 instructions:   23000000 cycles:   12463197 heartbeat IPC: 1.87117 cumulative IPC: 1.84543 (Simulation time: 0 hr 3 min 3 sec) 
Heartbeat CPU  2 instructions:   22000002 cycles:   12569682 heartbeat IPC: 1.76657 cumulative IPC: 1.75024 (Simulation time: 0 hr 3 min 5 sec) 
Heartbeat CPU  0 instructions:   24000000 cycles:   12836865 heartbeat IPC: 1.77676 cumulative IPC: 1.86962 (Simulation time: 0 hr 3 min 9 sec) 
Heartbeat CPU  1 instructions:   24000000 cycles:   12951058 heartbeat IPC: 1.87455 cumulative IPC: 1.85313 (Simulation time: 0 hr 3 min 11 sec) 
Heartbeat CPU  3 instructions:   24000000 cycles:   12987851 heartbeat IPC: 1.90602 cumulative IPC: 1.84788 (Simulation time: 0 hr 3 min 11 sec) 
Heartbeat CPU  2 instructions:   23000000 cycles:   13149523 heartbeat IPC: 1.72461 cumulative IPC: 1.74911 (Simulation time: 0 hr 3 min 13 sec) 
Heartbeat CPU  0 instructions:   25000002 cycles:   13396555 heartbeat IPC: 1.78671 cumulative IPC: 1.86615 (Simulation time: 0 hr 3 min 17 sec) 
Heartbeat CPU  1 instructions:   25000000 cycles:   13483051 heartbeat IPC: 1.87972 cumulative IPC: 1.85418 (Simulation time: 0 hr 3 min 18 sec) 
Heartbeat CPU  3 instructions:   25000003 cycles:   13549737 heartbeat IPC: 1.77973 cumulative IPC: 1.84505 (Simulation time: 0 hr 3 min 19 sec) 
Heartbeat CPU  2 instructions:   24000000 cycles:   13694818 heartbeat IPC: 1.83387 cumulative IPC: 1.75249 (Simulation time: 0 hr 3 min 22 sec) 
Heartbeat CPU  0 instructions:   26000002 cycles:   13927629 heartbeat IPC: 1.88298 cumulative IPC: 1.86679 (Simulation time: 0 hr 3 min 25 sec) 
Heartbeat CPU  1 instructions:   26000000 cycles:   14010711 heartbeat IPC: 1.89516 cumulative IPC: 1.85572 (Simulation time: 0 hr 3 min 26 sec) 
Heartbeat CPU  3 instructions:   26000001 cycles:   14075281 heartbeat IPC: 1.90279 cumulative IPC: 1.84721 (Simulation time: 0 hr 3 min 27 sec) 
Heartbeat CPU  2 instructions:   25000000 cycles:   14271149 heartbeat IPC: 1.73511 cumulative IPC: 1.75179 (Simulation time: 0 hr 3 min 30 sec) 
Heartbeat CPU  0 instructions:   27000000 cycles:   14454309 heartbeat IPC: 1.89868 cumulative IPC: 1.86796 (Simulation time: 0 hr 3 min 33 sec) 
Heartbeat CPU  1 instructions:   27000000 cycles:   14517559 heartbeat IPC: 1.97298 cumulative IPC: 1.85982 (Simulation time: 0 hr 3 min 34 sec) 
Heartbeat CPU  3 instructions:   27000003 cycles:   14609020 heartbeat IPC: 1.87358 cumulative IPC: 1.84817 (Simulation time: 0 hr 3 min 36 sec) 
Heartbeat CPU  2 instructions:   26000001 cycles:   14844007 heartbeat IPC: 1.74564 cumulative IPC: 1.75155 (Simulation time: 0 hr 3 min 39 sec) 
Heartbeat CPU  0 instructions:   28000000 cycles:   14969096 heartbeat IPC: 1.94255 cumulative IPC: 1.87052 (Simulation time: 0 hr 3 min 41 sec) 
Heartbeat CPU  1 instructions:   28000000 cycles:   15021072 heartbeat IPC: 1.98605 cumulative IPC: 1.86405 (Simulation time: 0 hr 3 min 42 sec) 
Heartbeat CPU  3 instructions:   28000000 cycles:   15113981 heartbeat IPC: 1.98035 cumulative IPC: 1.85259 (Simulation time: 0 hr 3 min 43 sec) 
Heartbeat CPU  2 instructions:   27000000 cycles:   15422198 heartbeat IPC: 1.72953 cumulative IPC: 1.75072 (Simulation time: 0 hr 3 min 48 sec) 
Heartbeat CPU  0 instructions:   29000001 cycles:   15467851 heartbeat IPC: 2.00499 cumulative IPC: 1.87486 (Simulation time: 0 hr 3 min 49 sec) 
Heartbeat CPU  1 instructions:   29000002 cycles:   15528601 heartbeat IPC: 1.97033 cumulative IPC: 1.86752 (Simulation time: 0 hr 3 min 50 sec) 
Heartbeat CPU  3 instructions:   29000003 cycles:   15622588 heartbeat IPC: 1.96616 cumulative IPC: 1.85629 (Simulation time: 0 hr 3 min 51 sec) 
Heartbeat CPU  2 instructions:   28000000 cycles:   15979903 heartbeat IPC: 1.79306 cumulative IPC: 1.75220 (Simulation time: 0 hr 3 min 57 sec) 
Heartbeat CPU  0 instructions:   30000002 cycles:   15983497 heartbeat IPC: 1.93932 cumulative IPC: 1.87694 (Simulation time: 0 hr 3 min 57 sec) 
Heartbeat CPU  1 instructions:   30000002 cycles:   16042745 heartbeat IPC: 1.94498 cumulative IPC: 1.87000 (Simulation time: 0 hr 3 min 58 sec) 
Heartbeat CPU  3 instructions:   30000000 cycles:   16144765 heartbeat IPC: 1.91505 cumulative IPC: 1.85819 (Simulation time: 0 hr 3 min 59 sec) 
Heartbeat CPU  0 instructions:   31000000 cycles:   16482778 heartbeat IPC: 2.00288 cumulative IPC: 1.88075 (Simulation time: 0 hr 4 min 5 sec) 
Heartbeat CPU  2 instructions:   29000001 cycles:   16514829 heartbeat IPC: 1.86942 cumulative IPC: 1.75600 (Simulation time: 0 hr 4 min 5 sec) 
Heartbeat CPU  1 instructions:   31000003 cycles:   16570408 heartbeat IPC: 1.89515 cumulative IPC: 1.87081 (Simulation time: 0 hr 4 min 6 sec) 
Heartbeat CPU  3 instructions:   31000002 cycles:   16652627 heartbeat IPC: 1.96904 cumulative IPC: 1.86157 (Simulation time: 0 hr 4 min 7 sec) 
Heartbeat CPU  2 instructions:   30000002 cycles:   17092878 heartbeat IPC: 1.72996 cumulative IPC: 1.75512 (Simulation time: 0 hr 4 min 14 sec) 
Heartbeat CPU  1 instructions:   32000000 cycles:   17112057 heartbeat IPC: 1.84621 cumulative IPC: 1.87003 (Simulation time: 0 hr 4 min 14 sec) 
Heartbeat CPU  0 instructions:   32000000 cycles:   17123680 heartbeat IPC: 1.56030 cumulative IPC: 1.86876 (Simulation time: 0 hr 4 min 14 sec) 
Heartbeat CPU  3 instructions:   32000000 cycles:   17158094 heartbeat IPC: 1.97836 cumulative IPC: 1.86501 (Simulation time: 0 hr 4 min 15 sec) 
Heartbeat CPU  0 instructions:   33000000 cycles:   17630559 heartbeat IPC: 1.97286 cumulative IPC: 1.87175 (Simulation time: 0 hr 4 min 22 sec) 
Heartbeat CPU  1 instructions:   33000003 cycles:   17638528 heartbeat IPC: 1.89945 cumulative IPC: 1.87090 (Simulation time: 0 hr 4 min 22 sec) 
Heartbeat CPU  2 instructions:   31000001 cycles:   17658841 heartbeat IPC: 1.76690 cumulative IPC: 1.75549 (Simulation time: 0 hr 4 min 22 sec) 
Heartbeat CPU  3 instructions:   33000001 cycles:   17702371 heartbeat IPC: 1.83730 cumulative IPC: 1.86416 (Simulation time: 0 hr 4 min 23 sec) 
Heartbeat CPU  0 instructions:   34000003 cycles:   18127013 heartbeat IPC: 2.01429 cumulative IPC: 1.87565 (Simulation time: 0 hr 4 min 30 sec) 
Heartbeat CPU  1 instructions:   34000003 cycles:   18150763 heartbeat IPC: 1.95223 cumulative IPC: 1.87320 (Simulation time: 0 hr 4 min 30 sec) 
Heartbeat CPU  3 instructions:   34000000 cycles:   18195510 heartbeat IPC: 2.02782 cumulative IPC: 1.86859 (Simulation time: 0 hr 4 min 31 sec) 
Heartbeat CPU  2 instructions:   32000000 cycles:   18245806 heartbeat IPC: 1.70368 cumulative IPC: 1.75383 (Simulation time: 0 hr 4 min 31 sec) 
Heartbeat CPU  0 instructions:   35000003 cycles:   18635839 heartbeat IPC: 1.96531 cumulative IPC: 1.87810 (Simulation time: 0 hr 4 min 38 sec) 
Heartbeat CPU  1 instructions:   35000003 cycles:   18664548 heartbeat IPC: 1.94634 cumulative IPC: 1.87521 (Simulation time: 0 hr 4 min 38 sec) 
Heartbeat CPU  3 instructions:   35000000 cycles:   18717866 heartbeat IPC: 1.91440 cumulative IPC: 1.86987 (Simulation time: 0 hr 4 min 39 sec) 
Heartbeat CPU  2 instructions:   33000002 cycles:   18783490 heartbeat IPC: 1.85983 cumulative IPC: 1.75686 (Simulation time: 0 hr 4 min 40 sec) 
Heartbeat CPU  1 instructions:   36000000 cycles:   19152573 heartbeat IPC: 2.04907 cumulative IPC: 1.87964 (Simulation time: 0 hr 4 min 46 sec) 
Heartbeat CPU  0 instructions:   36000000 cycles:   19153693 heartbeat IPC: 1.93104 cumulative IPC: 1.87953 (Simulation time: 0 hr 4 min 46 sec) 
Heartbeat CPU  3 instructions:   36000000 cycles:   19222055 heartbeat IPC: 1.98338 cumulative IPC: 1.87285 (Simulation time: 0 hr 4 min 47 sec) 
Heartbeat CPU  2 instructions:   34000003 cycles:   19390735 heartbeat IPC: 1.64678 cumulative IPC: 1.75341 (Simulation time: 0 hr 4 min 50 sec) 
Heartbeat CPU  0 instructions:   37000000 cycles:   19675041 heartbeat IPC: 1.91810 cumulative IPC: 1.88056 (Simulation time: 0 hr 4 min 54 sec) 
Heartbeat CPU  1 instructions:   37000003 cycles:   19681381 heartbeat IPC: 1.89105 cumulative IPC: 1.87995 (Simulation time: 0 hr 4 min 54 sec) 
Heartbeat CPU  3 instructions:   37000003 cycles:   19762170 heartbeat IPC: 1.85146 cumulative IPC: 1.87226 (Simulation time: 0 hr 4 min 56 sec) 
Heartbeat CPU  2 instructions:   35000000 cycles:   19972427 heartbeat IPC: 1.71912 cumulative IPC: 1.75242 (Simulation time: 0 hr 4 min 59 sec) 
Heartbeat CPU  0 instructions:   38000003 cycles:   20204902 heartbeat IPC: 1.88729 cumulative IPC: 1.88073 (Simulation time: 0 hr 5 min 2 sec) 
Heartbeat CPU  1 instructions:   38000003 cycles:   20208877 heartbeat IPC: 1.89575 cumulative IPC: 1.88036 (Simulation time: 0 hr 5 min 2 sec) 
Heartbeat CPU  3 instructions:   38000000 cycles:   20267729 heartbeat IPC: 1.97800 cumulative IPC: 1.87490 (Simulation time: 0 hr 5 min 3 sec) 
Heartbeat CPU  2 instructions:   36000000 cycles:   20529775 heartbeat IPC: 1.79421 cumulative IPC: 1.75355 (Simulation time: 0 hr 5 min 8 sec) 
Heartbeat CPU  1 instructions:   39000001 cycles:   20706479 heartbeat IPC: 2.00963 cumulative IPC: 1.88347 (Simulation time: 0 hr 5 min 11 sec) 
Heartbeat CPU  0 instructions:   39000003 cycles:   20725456 heartbeat IPC: 1.92103 cumulative IPC: 1.88174 (Simulation time: 0 hr 5 min 11 sec) 
Heartbeat CPU  3 instructions:   39000001 cycles:   20771502 heartbeat IPC: 1.98502 cumulative IPC: 1.87757 (Simulation time: 0 hr 5 min 12 sec) 
Heartbeat CPU  2 instructions:   37000001 cycles:   21085504 heartbeat IPC: 1.79944 cumulative IPC: 1.75476 (Simulation time: 0 hr 5 min 17 sec) 
Heartbeat CPU  0 instructions:   40000000 cycles:   21237748 heartbeat IPC: 1.95201 cumulative IPC: 1.88344 (Simulation time: 0 hr 5 min 19 sec) 
Heartbeat CPU  1 instructions:   40000000 cycles:   21254627 heartbeat IPC: 1.82432 cumulative IPC: 1.88194 (Simulation time: 0 hr 5 min 19 sec) 
Heartbeat CPU  3 instructions:   40000000 cycles:   21281104 heartbeat IPC: 1.96231 cumulative IPC: 1.87960 (Simulation time: 0 hr 5 min 20 sec) 
Heartbeat CPU  2 instructions:   38000000 cycles:   21668305 heartbeat IPC: 1.71585 cumulative IPC: 1.75371 (Simulation time: 0 hr 5 min 26 sec) 
Heartbeat CPU  1 instructions:   41000001 cycles:   21774572 heartbeat IPC: 1.92328 cumulative IPC: 1.88293 (Simulation time: 0 hr 5 min 27 sec) 
Heartbeat CPU  0 instructions:   41000000 cycles:   21789058 heartbeat IPC: 1.81386 cumulative IPC: 1.88168 (Simulation time: 0 hr 5 min 27 sec) 
Heartbeat CPU  3 instructions:   41000002 cycles:   21796398 heartbeat IPC: 1.94064 cumulative IPC: 1.88104 (Simulation time: 0 hr 5 min 28 sec) 
Heartbeat CPU  2 instructions:   39000000 cycles:   22238528 heartbeat IPC: 1.75370 cumulative IPC: 1.75371 (Simulation time: 0 hr 5 min 33 sec) 
Heartbeat CPU  1 instructions:   42000000 cycles:   22282528 heartbeat IPC: 1.96867 cumulative IPC: 1.88488 (Simulation time: 0 hr 5 min 34 sec) 
Heartbeat CPU  0 instructions:   42000002 cycles:   22383408 heartbeat IPC: 1.68251 cumulative IPC: 1.87639 (Simulation time: 0 hr 5 min 36 sec) 
Heartbeat CPU  3 instructions:   42000002 cycles:   22492485 heartbeat IPC: 1.43660 cumulative IPC: 1.86729 (Simulation time: 0 hr 5 min 37 sec) 
Heartbeat CPU  1 instructions:   43000003 cycles:   22793864 heartbeat IPC: 1.95567 cumulative IPC: 1.88647 (Simulation time: 0 hr 5 min 42 sec) 
Heartbeat CPU  2 instructions:   40000000 cycles:   22820407 heartbeat IPC: 1.71857 cumulative IPC: 1.75282 (Simulation time: 0 hr 5 min 42 sec) 
Heartbeat CPU  0 instructions:   43000003 cycles:   22934693 heartbeat IPC: 1.81395 cumulative IPC: 1.87489 (Simulation time: 0 hr 5 min 44 sec) 
Heartbeat CPU  3 instructions:   43000001 cycles:   23013226 heartbeat IPC: 1.92034 cumulative IPC: 1.86849 (Simulation time: 0 hr 5 min 45 sec) 
Heartbeat CPU  1 instructions:   44000000 cycles:   23313342 heartbeat IPC: 1.92500 cumulative IPC: 1.88733 (Simulation time: 0 hr 5 min 50 sec) 
Heartbeat CPU  2 instructions:   41000003 cycles:   23395708 heartbeat IPC: 1.73823 cumulative IPC: 1.75246 (Simulation time: 0 hr 5 min 51 sec) 
Heartbeat CPU  0 instructions:   44000000 cycles:   23476818 heartbeat IPC: 1.84459 cumulative IPC: 1.87419 (Simulation time: 0 hr 5 min 52 sec) 
Heartbeat CPU  3 instructions:   44000000 cycles:   23550091 heartbeat IPC: 1.86266 cumulative IPC: 1.86836 (Simulation time: 0 hr 5 min 53 sec) 
Heartbeat CPU  1 instructions:   45000002 cycles:   23867107 heartbeat IPC: 1.80582 cumulative IPC: 1.88544 (Simulation time: 0 hr 5 min 58 sec) 
Heartbeat CPU  2 instructions:   42000003 cycles:   24007863 heartbeat IPC: 1.63357 cumulative IPC: 1.74943 (Simulation time: 0 hr 6 min 0 sec) 
Heartbeat CPU  0 instructions:   45000000 cycles:   24033355 heartbeat IPC: 1.79683 cumulative IPC: 1.87240 (Simulation time: 0 hr 6 min 0 sec) 
Heartbeat CPU  3 instructions:   45000002 cycles:   24086353 heartbeat IPC: 1.86476 cumulative IPC: 1.86828 (Simulation time: 0 hr 6 min 1 sec) 
Heartbeat CPU  1 instructions:   46000000 cycles:   24396035 heartbeat IPC: 1.89061 cumulative IPC: 1.88555 (Simulation time: 0 hr 6 min 6 sec) 
Heartbeat CPU  0 instructions:   46000001 cycles:   24549811 heartbeat IPC: 1.93628 cumulative IPC: 1.87374 (Simulation time: 0 hr 6 min 9 sec) 
Heartbeat CPU  2 instructions:   43000002 cycles:   24593811 heartbeat IPC: 1.70663 cumulative IPC: 1.74841 (Simulation time: 0 hr 6 min 9 sec) 
Heartbeat CPU  3 instructions:   46000002 cycles:   24650603 heartbeat IPC: 1.77226 cumulative IPC: 1.86608 (Simulation time: 0 hr 6 min 10 sec) 
Heartbeat CPU  1 instructions:   47000001 cycles:   24918789 heartbeat IPC: 1.91295 cumulative IPC: 1.88613 (Simulation time: 0 hr 6 min 14 sec) 
Heartbeat CPU  0 instructions:   47000000 cycles:   25056070 heartbeat IPC: 1.97527 cumulative IPC: 1.87579 (Simulation time: 0 hr 6 min 17 sec) 
Heartbeat CPU  3 instructions:   47000001 cycles:   25160951 heartbeat IPC: 1.95945 cumulative IPC: 1.86797 (Simulation time: 0 hr 6 min 18 sec) 
Heartbeat CPU  2 instructions:   44000000 cycles:   25178304 heartbeat IPC: 1.71088 cumulative IPC: 1.74754 (Simulation time: 0 hr 6 min 19 sec) 
Heartbeat CPU  1 instructions:   48000000 cycles:   25428817 heartbeat IPC: 1.96067 cumulative IPC: 1.88762 (Simulation time: 0 hr 6 min 22 sec) 
Heartbeat CPU  0 instructions:   48000000 cycles:   25574936 heartbeat IPC: 1.92728 cumulative IPC: 1.87684 (Simulation time: 0 hr 6 min 25 sec) 
Heartbeat CPU  3 instructions:   48000000 cycles:   25681945 heartbeat IPC: 1.91941 cumulative IPC: 1.86902 (Simulation time: 0 hr 6 min 27 sec) 
Heartbeat CPU  2 instructions:   45000003 cycles:   25751292 heartbeat IPC: 1.74524 cumulative IPC: 1.74749 (Simulation time: 0 hr 6 min 28 sec) 
Heartbeat CPU  1 instructions:   49000002 cycles:   25957184 heartbeat IPC: 1.89263 cumulative IPC: 1.88772 (Simulation time: 0 hr 6 min 31 sec) 
Heartbeat CPU  0 instructions:   49000001 cycles:   26085687 heartbeat IPC: 1.95790 cumulative IPC: 1.87842 (Simulation time: 0 hr 6 min 33 sec) 
Heartbeat CPU  3 instructions:   49000003 cycles:   26218390 heartbeat IPC: 1.86413 cumulative IPC: 1.86892 (Simulation time: 0 hr 6 min 35 sec) 
Heartbeat CPU  2 instructions:   46000000 cycles:   26332406 heartbeat IPC: 1.72083 cumulative IPC: 1.74690 (Simulation time: 0 hr 6 min 36 sec) 
Heartbeat CPU  1 instructions:   50000000 cycles:   26469522 heartbeat IPC: 1.95183 cumulative IPC: 1.88897 (Simulation time: 0 hr 6 min 38 sec) 
Heartbeat CPU  0 instructions:   50000000 cycles:   26611097 heartbeat IPC: 1.90327 cumulative IPC: 1.87892 (Simulation time: 0 hr 6 min 40 sec) 
Heartbeat CPU  3 instructions:   50000003 cycles:   26739711 heartbeat IPC: 1.91820 cumulative IPC: 1.86988 (Simulation time: 0 hr 6 min 42 sec) 
Heartbeat CPU  2 instructions:   47000002 cycles:   26966412 heartbeat IPC: 1.57728 cumulative IPC: 1.74291 (Simulation time: 0 hr 6 min 46 sec) 
Heartbeat CPU  1 instructions:   51000002 cycles:   27008419 heartbeat IPC: 1.85565 cumulative IPC: 0.03703 (Simulation time: 0 hr 6 min 46 sec) 
Heartbeat CPU  0 instructions:   51000000 cycles:   27142740 heartbeat IPC: 1.88096 cumulative IPC: 0.03684 (Simulation time: 0 hr 6 min 48 sec) 
Heartbeat CPU  3 instructions:   51000000 cycles:   27340788 heartbeat IPC: 1.66368 cumulative IPC: 0.03658 (Simulation time: 0 hr 6 min 51 sec) 
Heartbeat CPU  1 instructions:   52000000 cycles:   27534855 heartbeat IPC: 1.89956 cumulative IPC: 0.07264 (Simulation time: 0 hr 6 min 54 sec) 
Heartbeat CPU  2 instructions:   48000000 cycles:   27537797 heartbeat IPC: 1.75013 cumulative IPC: 1.74306 (Simulation time: 0 hr 6 min 54 sec) 
Heartbeat CPU  0 instructions:   52000000 cycles:   27683215 heartbeat IPC: 1.85022 cumulative IPC: 0.07225 (Simulation time: 0 hr 6 min 56 sec) 
Heartbeat CPU  3 instructions:   52000000 cycles:   27852862 heartbeat IPC: 1.95284 cumulative IPC: 0.07181 (Simulation time: 0 hr 6 min 59 sec) 
Heartbeat CPU  1 instructions:   53000002 cycles:   28070945 heartbeat IPC: 1.86536 cumulative IPC: 0.10687 (Simulation time: 0 hr 7 min 2 sec) 
Heartbeat CPU  2 instructions:   49000000 cycles:   28113893 heartbeat IPC: 1.73582 cumulative IPC: 1.74291 (Simulation time: 0 hr 7 min 3 sec) 
Heartbeat CPU  0 instructions:   53000003 cycles:   28225054 heartbeat IPC: 1.84557 cumulative IPC: 0.10629 (Simulation time: 0 hr 7 min 5 sec) 
Heartbeat CPU  3 instructions:   53000001 cycles:   28397843 heartbeat IPC: 1.83493 cumulative IPC: 0.10564 (Simulation time: 0 hr 7 min 7 sec) 
Heartbeat CPU  1 instructions:   54000003 cycles:   28613596 heartbeat IPC: 1.84281 cumulative IPC: 0.13979 (Simulation time: 0 hr 7 min 10 sec) 
Heartbeat CPU  2 instructions:   50000000 cycles:   28667375 heartbeat IPC: 1.80674 cumulative IPC: 1.74414 (Simulation time: 0 hr 7 min 11 sec) 

Warmup complete CPU  0 instructions:   53767939 cycles:   28667375 (Simulation time: 0 hr 7 min 11 sec) 
Warmup complete CPU  1 instructions:   54110306 cycles:   28667376 (Simulation time: 0 hr 7 min 11 sec) 
Warmup complete CPU  2 instructions:   50000002 cycles:   28667376 (Simulation time: 0 hr 7 min 11 sec) 
Warmup complete CPU  3 instructions:   53474288 cycles:   28667376 (Simulation time: 0 hr 7 min 11 sec) 

Heartbeat CPU  0 instructions:   54000002 cycles:   29800986 heartbeat IPC: 0.63454 cumulative IPC: 0.20471 (Simulation time: 0 hr 7 min 13 sec) 
Heartbeat CPU  3 instructions:   54000003 cycles:   31173444 heartbeat IPC: 0.36028 cumulative IPC: 0.20978 (Simulation time: 0 hr 7 min 16 sec) 
Heartbeat CPU  1 instructions:   55000002 cycles:   32856238 heartbeat IPC: 0.23570 cumulative IPC: 0.21240 (Simulation time: 0 hr 7 min 20 sec) 
Heartbeat CPU  2 instructions:   51000001 cycles:   34302298 heartbeat IPC: 0.17746 cumulative IPC: 0.17746 (Simulation time: 0 hr 7 min 23 sec) 
Heartbeat CPU  0 instructions:   55000003 cycles:   34476799 heartbeat IPC: 0.21387 cumulative IPC: 0.21208 (Simulation time: 0 hr 7 min 24 sec) 
Heartbeat CPU  3 instructions:   55000002 cycles:   35875080 heartbeat IPC: 0.21269 cumulative IPC: 0.21168 (Simulation time: 0 hr 7 min 27 sec) 
Heartbeat CPU  1 instructions:   56000000 cycles:   37623861 heartbeat IPC: 0.20975 cumulative IPC: 0.21099 (Simulation time: 0 hr 7 min 30 sec) 
Heartbeat CPU  0 instructions:   56000000 cycles:   39188681 heartbeat IPC: 0.21223 cumulative IPC: 0.21215 (Simulation time: 0 hr 7 min 34 sec) 
Heartbeat CPU  2 instructions:   52000000 cycles:   40137818 heartbeat IPC: 0.17136 cumulative IPC: 0.17436 (Simulation time: 0 hr 7 min 36 sec) 
Heartbeat CPU  3 instructions:   56000000 cycles:   40652961 heartbeat IPC: 0.20930 cumulative IPC: 0.21073 (Simulation time: 0 hr 7 min 37 sec) 
Heartbeat CPU  1 instructions:   57000001 cycles:   42410973 heartbeat IPC: 0.20889 cumulative IPC: 0.21026 (Simulation time: 0 hr 7 min 41 sec) 
Heartbeat CPU  0 instructions:   57000001 cycles:   43961025 heartbeat IPC: 0.20954 cumulative IPC: 0.21133 (Simulation time: 0 hr 7 min 44 sec) 
Heartbeat CPU  3 instructions:   57000002 cycles:   45426310 heartbeat IPC: 0.20950 cumulative IPC: 0.21038 (Simulation time: 0 hr 7 min 47 sec) 
Heartbeat CPU  2 instructions:   53000000 cycles:   46045463 heartbeat IPC: 0.16927 cumulative IPC: 0.17263 (Simulation time: 0 hr 7 min 49 sec) 
Heartbeat CPU  1 instructions:   58000000 cycles:   47123061 heartbeat IPC: 0.21222 cumulative IPC: 0.21076 (Simulation time: 0 hr 7 min 51 sec) 
Heartbeat CPU  0 instructions:   58000000 cycles:   48669280 heartbeat IPC: 0.21239 cumulative IPC: 0.21158 (Simulation time: 0 hr 7 min 55 sec) 
Heartbeat CPU  3 instructions:   58000001 cycles:   50168706 heartbeat IPC: 0.21086 cumulative IPC: 0.21049 (Simulation time: 0 hr 7 min 58 sec) 
Heartbeat CPU  2 instructions:   54000001 cycles:   50649542 heartbeat IPC: 0.21720 cumulative IPC: 0.18197 (Simulation time: 0 hr 7 min 59 sec) 
Heartbeat CPU  1 instructions:   59000000 cycles:   51839782 heartbeat IPC: 0.21201 cumulative IPC: 0.21101 (Simulation time: 0 hr 8 min 2 sec) 
Heartbeat CPU  0 instructions:   59000002 cycles:   53412555 heartbeat IPC: 0.21083 cumulative IPC: 0.21144 (Simulation time: 0 hr 8 min 5 sec) 
Heartbeat CPU  3 instructions:   59000002 cycles:   54907727 heartbeat IPC: 0.21101 cumulative IPC: 0.21058 (Simulation time: 0 hr 8 min 8 sec) 
Heartbeat CPU  2 instructions:   55000002 cycles:   56541327 heartbeat IPC: 0.16973 cumulative IPC: 0.17938 (Simulation time: 0 hr 8 min 12 sec) 
Heartbeat CPU  1 instructions:   60000000 cycles:   56585934 heartbeat IPC: 0.21070 cumulative IPC: 0.21096 (Simulation time: 0 hr 8 min 12 sec) 
Heartbeat CPU  0 instructions:   60000000 cycles:   58185396 heartbeat IPC: 0.20952 cumulative IPC: 0.21113 (Simulation time: 0 hr 8 min 15 sec) 
Heartbeat CPU  3 instructions:   60000000 cycles:   59629480 heartbeat IPC: 0.21179 cumulative IPC: 0.21076 (Simulation time: 0 hr 8 min 19 sec) 
Heartbeat CPU  1 instructions:   61000002 cycles:   61292916 heartbeat IPC: 0.21245 cumulative IPC: 0.21117 (Simulation time: 0 hr 8 min 22 sec) 
Heartbeat CPU  2 instructions:   56000000 cycles:   62527825 heartbeat IPC: 0.16704 cumulative IPC: 0.17720 (Simulation time: 0 hr 8 min 25 sec) 
Heartbeat CPU  0 instructions:   61000002 cycles:   62845923 heartbeat IPC: 0.21457 cumulative IPC: 0.21160 (Simulation time: 0 hr 8 min 25 sec) 
Heartbeat CPU  3 instructions:   61000001 cycles:   64381606 heartbeat IPC: 0.21043 cumulative IPC: 0.21072 (Simulation time: 0 hr 8 min 29 sec) 
Heartbeat CPU  1 instructions:   62000002 cycles:   66001086 heartbeat IPC: 0.21240 cumulative IPC: 0.21133 (Simulation time: 0 hr 8 min 32 sec) 
Heartbeat CPU  0 instructions:   62000000 cycles:   67638420 heartbeat IPC: 0.20866 cumulative IPC: 0.21124 (Simulation time: 0 hr 8 min 36 sec) 
Heartbeat CPU  2 instructions:   57000000 cycles:   68412399 heartbeat IPC: 0.16994 cumulative IPC: 0.17612 (Simulation time: 0 hr 8 min 37 sec) 
Heartbeat CPU  3 instructions:   62000002 cycles:   69078583 heartbeat IPC: 0.21290 cumulative IPC: 0.21097 (Simulation time: 0 hr 8 min 39 sec) 
Heartbeat CPU  1 instructions:   63000001 cycles:   70760533 heartbeat IPC: 0.21011 cumulative IPC: 0.21119 (Simulation time: 0 hr 8 min 43 sec) 
Heartbeat CPU  0 instructions:   63000001 cycles:   72415847 heartbeat IPC: 0.20932 cumulative IPC: 0.21103 (Simulation time: 0 hr 8 min 46 sec) 
Heartbeat CPU  3 instructions:   63000002 cycles:   73870631 heartbeat IPC: 0.20868 cumulative IPC: 0.21073 (Simulation time: 0 hr 8 min 49 sec) 
Heartbeat CPU  2 instructions:   58000003 cycles:   74398192 heartbeat IPC: 0.16706 cumulative IPC: 0.17494 (Simulation time: 0 hr 8 min 50 sec) 
Heartbeat CPU  1 instructions:   64000000 cycles:   75363570 heartbeat IPC: 0.21725 cumulative IPC: 0.21179 (Simulation time: 0 hr 8 min 52 sec) 
Heartbeat CPU  0 instructions:   64000000 cycles:   77084162 heartbeat IPC: 0.21421 cumulative IPC: 0.21133 (Simulation time: 0 hr 8 min 56 sec) 
Heartbeat CPU  3 instructions:   64000000 cycles:   78585238 heartbeat IPC: 0.21211 cumulative IPC: 0.21086 (Simulation time: 0 hr 8 min 59 sec) 
Heartbeat CPU  1 instructions:   65000003 cycles:   80030040 heartbeat IPC: 0.21430 cumulative IPC: 0.21202 (Simulation time: 0 hr 9 min 3 sec) 
Heartbeat CPU  2 instructions:   59000000 cycles:   80258451 heartbeat IPC: 0.17064 cumulative IPC: 0.17445 (Simulation time: 0 hr 9 min 3 sec) 
Heartbeat CPU  0 instructions:   65000001 cycles:   81849389 heartbeat IPC: 0.20985 cumulative IPC: 0.21120 (Simulation time: 0 hr 9 min 7 sec) 
Heartbeat CPU  3 instructions:   65000002 cycles:   83323037 heartbeat IPC: 0.21107 cumulative IPC: 0.21088 (Simulation time: 0 hr 9 min 10 sec) 
Heartbeat CPU  1 instructions:   66000000 cycles:   84745663 heartbeat IPC: 0.21206 cumulative IPC: 0.21202 (Simulation time: 0 hr 9 min 13 sec) 
Heartbeat CPU  2 instructions:   60000000 cycles:   86172270 heartbeat IPC: 0.16910 cumulative IPC: 0.17390 (Simulation time: 0 hr 9 min 16 sec) 
Heartbeat CPU  0 instructions:   66000003 cycles:   86545845 heartbeat IPC: 0.21293 cumulative IPC: 0.21134 (Simulation time: 0 hr 9 min 17 sec) 
Heartbeat CPU  3 instructions:   66000001 cycles:   87964582 heartbeat IPC: 0.21545 cumulative IPC: 0.21124 (Simulation time: 0 hr 9 min 20 sec) 
Heartbeat CPU  1 instructions:   67000000 cycles:   89469343 heartbeat IPC: 0.21170 cumulative IPC: 0.21199 (Simulation time: 0 hr 9 min 23 sec) 
Heartbeat CPU  0 instructions:   67000002 cycles:   91169222 heartbeat IPC: 0.21629 cumulative IPC: 0.21171 (Simulation time: 0 hr 9 min 27 sec) 
Heartbeat CPU  2 instructions:   61000000 cycles:   92120085 heartbeat IPC: 0.16813 cumulative IPC: 0.17336 (Simulation time: 0 hr 9 min 29 sec) 
Heartbeat CPU  3 instructions:   67000003 cycles:   92686088 heartbeat IPC: 0.21180 cumulative IPC: 0.21128 (Simulation time: 0 hr 9 min 30 sec) 
Heartbeat CPU  1 instructions:   68000000 cycles:   94116241 heartbeat IPC: 0.21520 cumulative IPC: 0.21222 (Simulation time: 0 hr 9 min 33 sec) 
Heartbeat CPU  0 instructions:   68000000 cycles:   95817476 heartbeat IPC: 0.21513 cumulative IPC: 0.21194 (Simulation time: 0 hr 9 min 37 sec) 
Heartbeat CPU  3 instructions:   68000000 cycles:   97386660 heartbeat IPC: 0.21274 cumulative IPC: 0.21138 (Simulation time: 0 hr 9 min 40 sec) 
Heartbeat CPU  2 instructions:   62000002 cycles:   98010312 heartbeat IPC: 0.16977 cumulative IPC: 0.17305 (Simulation time: 0 hr 9 min 42 sec) 
Heartbeat CPU  1 instructions:   69000000 cycles:   98734962 heartbeat IPC: 0.21651 cumulative IPC: 0.21250 (Simulation time: 0 hr 9 min 44 sec) 
Heartbeat CPU  3 instructions:   69000000 cycles:   98916124 heartbeat IPC: 0.65382 cumulative IPC: 0.22101 (Simulation time: 0 hr 9 min 45 sec) 
Heartbeat CPU  3 instructions:   70000003 cycles:   99476551 heartbeat IPC: 1.78436 cumulative IPC: 0.23338 (Simulation time: 0 hr 9 min 47 sec) 
Heartbeat CPU  3 instructions:   71000000 cycles:  100025903 heartbeat IPC: 1.82032 cumulative IPC: 0.24560 (Simulation time: 0 hr 9 min 49 sec) 
Heartbeat CPU  0 instructions:   69000003 cycles:  100479175 heartbeat IPC: 0.21451 cumulative IPC: 0.21211 (Simulation time: 0 hr 9 min 51 sec) 
Heartbeat CPU  3 instructions:   72000000 cycles:  100550305 heartbeat IPC: 1.90693 cumulative IPC: 0.25772 (Simulation time: 0 hr 9 min 52 sec) 
Heartbeat CPU  1 instructions:   70000003 cycles:  103323274 heartbeat IPC: 0.21795 cumulative IPC: 0.21284 (Simulation time: 0 hr 9 min 58 sec) 
Heartbeat CPU  2 instructions:   63000000 cycles:  103856506 heartbeat IPC: 0.17105 cumulative IPC: 0.17290 (Simulation time: 0 hr 9 min 59 sec) 
Heartbeat CPU  3 instructions:   73000001 cycles:  104620409 heartbeat IPC: 0.24569 cumulative IPC: 0.25708 (Simulation time: 0 hr 10 min 1 sec) 
Heartbeat CPU  0 instructions:   70000001 cycles:  105152243 heartbeat IPC: 0.21399 cumulative IPC: 0.21223 (Simulation time: 0 hr 10 min 3 sec) 
Heartbeat CPU  2 instructions:   64000000 cycles:  105760189 heartbeat IPC: 0.52530 cumulative IPC: 0.18160 (Simulation time: 0 hr 10 min 4 sec) 
Heartbeat CPU  2 instructions:   65000000 cycles:  107725023 heartbeat IPC: 0.50895 cumulative IPC: 0.18973 (Simulation time: 0 hr 10 min 9 sec) 
Heartbeat CPU  1 instructions:   71000003 cycles:  108016590 heartbeat IPC: 0.21307 cumulative IPC: 0.21285 (Simulation time: 0 hr 10 min 10 sec) 
Heartbeat CPU  3 instructions:   74000000 cycles:  109274146 heartbeat IPC: 0.21488 cumulative IPC: 0.25464 (Simulation time: 0 hr 10 min 13 sec) 
Heartbeat CPU  2 instructions:   66000001 cycles:  109581262 heartbeat IPC: 0.53872 cumulative IPC: 0.19774 (Simulation time: 0 hr 10 min 14 sec) 
Heartbeat CPU  0 instructions:   71000002 cycles:  109874046 heartbeat IPC: 0.21178 cumulative IPC: 0.21220 (Simulation time: 0 hr 10 min 15 sec) 
Heartbeat CPU  2 instructions:   67000002 cycles:  111394418 heartbeat IPC: 0.55153 cumulative IPC: 0.20550 (Simulation time: 0 hr 10 min 19 sec) 
Heartbeat CPU  0 instructions:   72000000 cycles:  112448487 heartbeat IPC: 0.38843 cumulative IPC: 0.21762 (Simulation time: 0 hr 10 min 22 sec) 
Heartbeat CPU  1 instructions:   72000000 cycles:  112688024 heartbeat IPC: 0.21407 cumulative IPC: 0.21292 (Simulation time: 0 hr 10 min 23 sec) 
Heartbeat CPU  2 instructions:   68000000 cycles:  113151169 heartbeat IPC: 0.56923 cumulative IPC: 0.21306 (Simulation time: 0 hr 10 min 24 sec) 
Heartbeat CPU  3 instructions:   75000001 cycles:  113849281 heartbeat IPC: 0.21857 cumulative IPC: 0.25270 (Simulation time: 0 hr 10 min 26 sec) 
Heartbeat CPU  2 instructions:   69000003 cycles:  114621118 heartbeat IPC: 0.68030 cumulative IPC: 0.22105 (Simulation time: 0 hr 10 min 29 sec) 
Heartbeat CPU  2 instructions:   70000000 cycles:  116016945 heartbeat IPC: 0.71642 cumulative IPC: 0.22897 (Simulation time: 0 hr 10 min 33 sec) 
Heartbeat CPU  0 instructions:   73000001 cycles:  116304146 heartbeat IPC: 0.25936 cumulative IPC: 0.21945 (Simulation time: 0 hr 10 min 33 sec) 
Heartbeat CPU  1 instructions:   73000002 cycles:  117277974 heartbeat IPC: 0.21787 cumulative IPC: 0.21318 (Simulation time: 0 hr 10 min 36 sec) 
Heartbeat CPU  2 instructions:   71000003 cycles:  117597765 heartbeat IPC: 0.63258 cumulative IPC: 0.23614 (Simulation time: 0 hr 10 min 37 sec) 
Heartbeat CPU  3 instructions:   76000000 cycles:  118697170 heartbeat IPC: 0.20628 cumulative IPC: 0.25020 (Simulation time: 0 hr 10 min 40 sec) 
Heartbeat CPU  2 instructions:   72000000 cycles:  118903054 heartbeat IPC: 0.76611 cumulative IPC: 0.24381 (Simulation time: 0 hr 10 min 41 sec) 
Heartbeat CPU  0 instructions:   74000003 cycles:  120995044 heartbeat IPC: 0.21318 cumulative IPC: 0.21913 (Simulation time: 0 hr 10 min 45 sec) 
Heartbeat CPU  1 instructions:   74000003 cycles:  122117730 heartbeat IPC: 0.20662 cumulative IPC: 0.21284 (Simulation time: 0 hr 10 min 48 sec) 
Heartbeat CPU  3 instructions:   77000000 cycles:  123490758 heartbeat IPC: 0.20861 cumulative IPC: 0.24810 (Simulation time: 0 hr 10 min 51 sec) 
Heartbeat CPU  2 instructions:   73000000 cycles:  123993520 heartbeat IPC: 0.19645 cumulative IPC: 0.24128 (Simulation time: 0 hr 10 min 52 sec) 
Heartbeat CPU  0 instructions:   75000001 cycles:  125629051 heartbeat IPC: 0.21580 cumulative IPC: 0.21897 (Simulation time: 0 hr 10 min 55 sec) 
Heartbeat CPU  1 instructions:   75000002 cycles:  126671335 heartbeat IPC: 0.21961 cumulative IPC: 0.21315 (Simulation time: 0 hr 10 min 58 sec) 
Heartbeat CPU  3 instructions:   78000001 cycles:  128279169 heartbeat IPC: 0.20884 cumulative IPC: 0.24621 (Simulation time: 0 hr 11 min 1 sec) 
Heartbeat CPU  2 instructions:   74000000 cycles:  129499712 heartbeat IPC: 0.18161 cumulative IPC: 0.23802 (Simulation time: 0 hr 11 min 4 sec) 
Heartbeat CPU  0 instructions:   76000000 cycles:  130406556 heartbeat IPC: 0.20931 cumulative IPC: 0.21852 (Simulation time: 0 hr 11 min 6 sec) 
Heartbeat CPU  1 instructions:   76000000 cycles:  131389978 heartbeat IPC: 0.21192 cumulative IPC: 0.21310 (Simulation time: 0 hr 11 min 8 sec) 
Heartbeat CPU  3 instructions:   79000001 cycles:  133060823 heartbeat IPC: 0.20913 cumulative IPC: 0.24451 (Simulation time: 0 hr 11 min 12 sec) 
Heartbeat CPU  2 instructions:   75000003 cycles:  134199680 heartbeat IPC: 0.21277 cumulative IPC: 0.23689 (Simulation time: 0 hr 11 min 14 sec) 
Heartbeat CPU  0 instructions:   77000002 cycles:  135138203 heartbeat IPC: 0.21134 cumulative IPC: 0.21820 (Simulation time: 0 hr 11 min 16 sec) 
Heartbeat CPU  1 instructions:   77000002 cycles:  136155580 heartbeat IPC: 0.20984 cumulative IPC: 0.21295 (Simulation time: 0 hr 11 min 18 sec) 
Heartbeat CPU  3 instructions:   80000000 cycles:  137894205 heartbeat IPC: 0.20689 cumulative IPC: 0.24285 (Simulation time: 0 hr 11 min 22 sec) 
Heartbeat CPU  0 instructions:   78000000 cycles:  139875590 heartbeat IPC: 0.21109 cumulative IPC: 0.21790 (Simulation time: 0 hr 11 min 26 sec) 
Heartbeat CPU  2 instructions:   76000000 cycles:  140161059 heartbeat IPC: 0.16775 cumulative IPC: 0.23320 (Simulation time: 0 hr 11 min 26 sec) 
Heartbeat CPU  1 instructions:   78000001 cycles:  141035689 heartbeat IPC: 0.20491 cumulative IPC: 0.21260 (Simulation time: 0 hr 11 min 28 sec) 
Heartbeat CPU  3 instructions:   81000000 cycles:  142682406 heartbeat IPC: 0.20885 cumulative IPC: 0.24142 (Simulation time: 0 hr 11 min 32 sec) 
Heartbeat CPU  0 instructions:   79000002 cycles:  144567796 heartbeat IPC: 0.21312 cumulative IPC: 0.21770 (Simulation time: 0 hr 11 min 36 sec) 
Heartbeat CPU  1 instructions:   79000002 cycles:  145813576 heartbeat IPC: 0.20930 cumulative IPC: 0.21247 (Simulation time: 0 hr 11 min 38 sec) 
Heartbeat CPU  2 instructions:   77000001 cycles:  146159670 heartbeat IPC: 0.16671 cumulative IPC: 0.22980 (Simulation time: 0 hr 11 min 39 sec) 
Heartbeat CPU  3 instructions:   82000000 cycles:  147400446 heartbeat IPC: 0.21195 cumulative IPC: 0.24025 (Simulation time: 0 hr 11 min 42 sec) 
Heartbeat CPU  0 instructions:   80000000 cycles:  149340848 heartbeat IPC: 0.20951 cumulative IPC: 0.21738 (Simulation time: 0 hr 11 min 46 sec) 
Heartbeat CPU  1 instructions:   80000000 cycles:  150623599 heartbeat IPC: 0.20790 cumulative IPC: 0.21229 (Simulation time: 0 hr 11 min 49 sec) 
Heartbeat CPU  2 instructions:   78000000 cycles:  152182529 heartbeat IPC: 0.16603 cumulative IPC: 0.22669 (Simulation time: 0 hr 11 min 52 sec) 
Heartbeat CPU  3 instructions:   83000002 cycles:  152299044 heartbeat IPC: 0.20414 cumulative IPC: 0.23882 (Simulation time: 0 hr 11 min 52 sec) 
Heartbeat CPU  0 instructions:   81000000 cycles:  154067235 heartbeat IPC: 0.21158 cumulative IPC: 0.21716 (Simulation time: 0 hr 11 min 56 sec) 
Heartbeat CPU  1 instructions:   81000002 cycles:  155361296 heartbeat IPC: 0.21107 cumulative IPC: 0.21224 (Simulation time: 0 hr 11 min 59 sec) 
Heartbeat CPU  3 instructions:   84000000 cycles:  157110747 heartbeat IPC: 0.20783 cumulative IPC: 0.23766 (Simulation time: 0 hr 12 min 2 sec) 
Heartbeat CPU  2 instructions:   79000001 cycles:  158127441 heartbeat IPC: 0.16821 cumulative IPC: 0.22401 (Simulation time: 0 hr 12 min 4 sec) 
Heartbeat CPU  0 instructions:   82000002 cycles:  158791909 heartbeat IPC: 0.21166 cumulative IPC: 0.21696 (Simulation time: 0 hr 12 min 6 sec) 
Heartbeat CPU  1 instructions:   82000000 cycles:  160047091 heartbeat IPC: 0.21341 cumulative IPC: 0.21228 (Simulation time: 0 hr 12 min 9 sec) 
Heartbeat CPU  3 instructions:   85000002 cycles:  161949807 heartbeat IPC: 0.20665 cumulative IPC: 0.23653 (Simulation time: 0 hr 12 min 12 sec) 
Heartbeat CPU  0 instructions:   83000001 cycles:  163654700 heartbeat IPC: 0.20564 cumulative IPC: 0.21655 (Simulation time: 0 hr 12 min 16 sec) 
Heartbeat CPU  2 instructions:   80000000 cycles:  164152553 heartbeat IPC: 0.16597 cumulative IPC: 0.22143 (Simulation time: 0 hr 12 min 17 sec) 
Heartbeat CPU  1 instructions:   83000002 cycles:  164776629 heartbeat IPC: 0.21144 cumulative IPC: 0.21225 (Simulation time: 0 hr 12 min 18 sec) 
Heartbeat CPU  3 instructions:   86000000 cycles:  166783029 heartbeat IPC: 0.20690 cumulative IPC: 0.23550 (Simulation time: 0 hr 12 min 23 sec) 
Heartbeat CPU  0 instructions:   84000000 cycles:  168372498 heartbeat IPC: 0.21196 cumulative IPC: 0.21640 (Simulation time: 0 hr 12 min 26 sec) 
Heartbeat CPU  1 instructions:   84000000 cycles:  169473234 heartbeat IPC: 0.21292 cumulative IPC: 0.21228 (Simulation time: 0 hr 12 min 28 sec) 
Heartbeat CPU  2 instructions:   81000001 cycles:  170033440 heartbeat IPC: 0.17004 cumulative IPC: 0.21929 (Simulation time: 0 hr 12 min 30 sec) 
Heartbeat CPU  3 instructions:   87000000 cycles:  171626167 heartbeat IPC: 0.20648 cumulative IPC: 0.23451 (Simulation time: 0 hr 12 min 33 sec) 
Heartbeat CPU  0 instructions:   85000002 cycles:  173170923 heartbeat IPC: 0.20840 cumulative IPC: 0.21613 (Simulation time: 0 hr 12 min 36 sec) 
Heartbeat CPU  1 instructions:   85000001 cycles:  174235012 heartbeat IPC: 0.21001 cumulative IPC: 0.21220 (Simulation time: 0 hr 12 min 39 sec) 
Heartbeat CPU  2 instructions:   82000001 cycles:  175940664 heartbeat IPC: 0.16928 cumulative IPC: 0.21728 (Simulation time: 0 hr 12 min 42 sec) 
Heartbeat CPU  3 instructions:   88000000 cycles:  176556820 heartbeat IPC: 0.20281 cumulative IPC: 0.23346 (Simulation time: 0 hr 12 min 44 sec) 
Heartbeat CPU  0 instructions:   86000002 cycles:  177965419 heartbeat IPC: 0.20857 cumulative IPC: 0.21589 (Simulation time: 0 hr 12 min 47 sec) 
Heartbeat CPU  1 instructions:   86000001 cycles:  178996307 heartbeat IPC: 0.21003 cumulative IPC: 0.21213 (Simulation time: 0 hr 12 min 49 sec) 
Heartbeat CPU  3 instructions:   89000003 cycles:  181350511 heartbeat IPC: 0.20861 cumulative IPC: 0.23268 (Simulation time: 0 hr 12 min 54 sec) 
Heartbeat CPU  2 instructions:   83000001 cycles:  181897390 heartbeat IPC: 0.16788 cumulative IPC: 0.21536 (Simulation time: 0 hr 12 min 55 sec) 
Heartbeat CPU  0 instructions:   87000002 cycles:  182742893 heartbeat IPC: 0.20932 cumulative IPC: 0.21569 (Simulation time: 0 hr 12 min 57 sec) 
Heartbeat CPU  1 instructions:   87000003 cycles:  183862197 heartbeat IPC: 0.20551 cumulative IPC: 0.21193 (Simulation time: 0 hr 12 min 59 sec) 
Heartbeat CPU  3 instructions:   90000003 cycles:  186086567 heartbeat IPC: 0.21115 cumulative IPC: 0.23203 (Simulation time: 0 hr 13 min 4 sec) 
Heartbeat CPU  0 instructions:   88000000 cycles:  187458379 heartbeat IPC: 0.21207 cumulative IPC: 0.21558 (Simulation time: 0 hr 13 min 7 sec) 
Heartbeat CPU  2 instructions:   84000000 cycles:  187792037 heartbeat IPC: 0.16965 cumulative IPC: 0.21367 (Simulation time: 0 hr 13 min 8 sec) 
Heartbeat CPU  1 instructions:   88000000 cycles:  188589911 heartbeat IPC: 0.21152 cumulative IPC: 0.21191 (Simulation time: 0 hr 13 min 10 sec) 
Heartbeat CPU  3 instructions:   91000000 cycles:  190780647 heartbeat IPC: 0.21303 cumulative IPC: 0.23148 (Simulation time: 0 hr 13 min 14 sec) 
Heartbeat CPU  1 instructions:   89000002 cycles:  191199183 heartbeat IPC: 0.38325 cumulative IPC: 0.21466 (Simulation time: 0 hr 13 min 16 sec) 
Heartbeat CPU  0 instructions:   89000003 cycles:  192036133 heartbeat IPC: 0.21845 cumulative IPC: 0.21566 (Simulation time: 0 hr 13 min 18 sec) 
Heartbeat CPU  2 instructions:   85000000 cycles:  193759132 heartbeat IPC: 0.16759 cumulative IPC: 0.21200 (Simulation time: 0 hr 13 min 21 sec) 
Heartbeat CPU  3 instructions:   92000000 cycles:  195496540 heartbeat IPC: 0.21205 cumulative IPC: 0.23093 (Simulation time: 0 hr 13 min 25 sec) 
Heartbeat CPU  1 instructions:   90000003 cycles:  195751237 heartbeat IPC: 0.21968 cumulative IPC: 0.21480 (Simulation time: 0 hr 13 min 25 sec) 
Heartbeat CPU  0 instructions:   90000001 cycles:  196700431 heartbeat IPC: 0.21439 cumulative IPC: 0.21562 (Simulation time: 0 hr 13 min 28 sec) 
Heartbeat CPU  2 instructions:   86000002 cycles:  199710020 heartbeat IPC: 0.16804 cumulative IPC: 0.21047 (Simulation time: 0 hr 13 min 34 sec) 
Heartbeat CPU  3 instructions:   93000002 cycles:  200240118 heartbeat IPC: 0.21081 cumulative IPC: 0.23037 (Simulation time: 0 hr 13 min 35 sec) 
Heartbeat CPU  1 instructions:   91000002 cycles:  200502596 heartbeat IPC: 0.21047 cumulative IPC: 0.21468 (Simulation time: 0 hr 13 min 36 sec) 
Heartbeat CPU  0 instructions:   91000003 cycles:  201480713 heartbeat IPC: 0.20919 cumulative IPC: 0.21545 (Simulation time: 0 hr 13 min 38 sec) 
Heartbeat CPU  2 instructions:   87000003 cycles:  204330749 heartbeat IPC: 0.21642 cumulative IPC: 0.21063 (Simulation time: 0 hr 13 min 44 sec) 
Heartbeat CPU  3 instructions:   94000002 cycles:  205002020 heartbeat IPC: 0.21000 cumulative IPC: 0.22982 (Simulation time: 0 hr 13 min 46 sec) 
Heartbeat CPU  1 instructions:   92000000 cycles:  205227052 heartbeat IPC: 0.21166 cumulative IPC: 0.21460 (Simulation time: 0 hr 13 min 46 sec) 
Heartbeat CPU  0 instructions:   92000000 cycles:  206197221 heartbeat IPC: 0.21202 cumulative IPC: 0.21536 (Simulation time: 0 hr 13 min 48 sec) 
Heartbeat CPU  3 instructions:   95000000 cycles:  209743955 heartbeat IPC: 0.21088 cumulative IPC: 0.22933 (Simulation time: 0 hr 13 min 56 sec) 
Heartbeat CPU  1 instructions:   93000003 cycles:  209930383 heartbeat IPC: 0.21262 cumulative IPC: 0.21455 (Simulation time: 0 hr 13 min 56 sec) 
Heartbeat CPU  2 instructions:   88000000 cycles:  210219843 heartbeat IPC: 0.16980 cumulative IPC: 0.20931 (Simulation time: 0 hr 13 min 57 sec) 
Heartbeat CPU  0 instructions:   93000000 cycles:  210859154 heartbeat IPC: 0.21450 cumulative IPC: 0.21533 (Simulation time: 0 hr 13 min 58 sec) 
Heartbeat CPU  2 instructions:   89000002 cycles:  213374220 heartbeat IPC: 0.31702 cumulative IPC: 0.21115 (Simulation time: 0 hr 14 min 4 sec) 
Heartbeat CPU  3 instructions:   96000000 cycles:  214460465 heartbeat IPC: 0.21202 cumulative IPC: 0.22889 (Simulation time: 0 hr 14 min 7 sec) 
Heartbeat CPU  1 instructions:   94000000 cycles:  214602980 heartbeat IPC: 0.21401 cumulative IPC: 0.21453 (Simulation time: 0 hr 14 min 7 sec) 
Heartbeat CPU  0 instructions:   94000001 cycles:  215591658 heartbeat IPC: 0.21130 cumulative IPC: 0.21523 (Simulation time: 0 hr 14 min 9 sec) 
Heartbeat CPU  2 instructions:   90000000 cycles:  218904119 heartbeat IPC: 0.18083 cumulative IPC: 0.21026 (Simulation time: 0 hr 14 min 16 sec) 
Heartbeat CPU  3 instructions:   97000002 cycles:  219201999 heartbeat IPC: 0.21090 cumulative IPC: 0.22844 (Simulation time: 0 hr 14 min 17 sec) 
Heartbeat CPU  1 instructions:   95000000 cycles:  219379832 heartbeat IPC: 0.20934 cumulative IPC: 0.21440 (Simulation time: 0 hr 14 min 17 sec) 
Heartbeat CPU  0 instructions:   95000002 cycles:  220287442 heartbeat IPC: 0.21296 cumulative IPC: 0.21518 (Simulation time: 0 hr 14 min 19 sec) 
Heartbeat CPU  3 instructions:   98000000 cycles:  223805333 heartbeat IPC: 0.21723 cumulative IPC: 0.22818 (Simulation time: 0 hr 14 min 27 sec) 
Heartbeat CPU  2 instructions:   91000001 cycles:  223994638 heartbeat IPC: 0.19644 cumulative IPC: 0.20990 (Simulation time: 0 hr 14 min 27 sec) 
Heartbeat CPU  1 instructions:   96000000 cycles:  224099850 heartbeat IPC: 0.21186 cumulative IPC: 0.21434 (Simulation time: 0 hr 14 min 27 sec) 
Heartbeat CPU  0 instructions:   96000000 cycles:  225016244 heartbeat IPC: 0.21147 cumulative IPC: 0.21509 (Simulation time: 0 hr 14 min 30 sec) 
Heartbeat CPU  2 instructions:   92000000 cycles:  227053133 heartbeat IPC: 0.32696 cumulative IPC: 0.21171 (Simulation time: 0 hr 14 min 35 sec) 
Heartbeat CPU  1 instructions:   97000000 cycles:  227054450 heartbeat IPC: 0.33846 cumulative IPC: 0.21619 (Simulation time: 0 hr 14 min 35 sec) 
Heartbeat CPU  3 instructions:   99000003 cycles:  228589633 heartbeat IPC: 0.20902 cumulative IPC: 0.22772 (Simulation time: 0 hr 14 min 39 sec) 
Heartbeat CPU  2 instructions:   93000000 cycles:  229316213 heartbeat IPC: 0.44188 cumulative IPC: 0.21430 (Simulation time: 0 hr 14 min 40 sec) 
Heartbeat CPU  0 instructions:   97000002 cycles:  229617688 heartbeat IPC: 0.21732 cumulative IPC: 0.21514 (Simulation time: 0 hr 14 min 41 sec) 
Heartbeat CPU  1 instructions:   98000001 cycles:  231769599 heartbeat IPC: 0.21208 cumulative IPC: 0.21610 (Simulation time: 0 hr 14 min 46 sec) 
*** Reached end of trace for Core: 3 Repeating trace: /data3/STREAMING/traces/streaming_phase3_core3.trace.xz
Heartbeat CPU  3 instructions:  100000000 cycles:  233342822 heartbeat IPC: 0.21038 cumulative IPC: 0.22731 (Simulation time: 0 hr 14 min 50 sec) 
Heartbeat CPU  2 instructions:   94000000 cycles:  233539544 heartbeat IPC: 0.23678 cumulative IPC: 0.21477 (Simulation time: 0 hr 14 min 50 sec) 
Heartbeat CPU  0 instructions:   98000001 cycles:  234315439 heartbeat IPC: 0.21287 cumulative IPC: 0.21509 (Simulation time: 0 hr 14 min 52 sec) 
Heartbeat CPU  1 instructions:   99000000 cycles:  236482023 heartbeat IPC: 0.21220 cumulative IPC: 0.21601 (Simulation time: 0 hr 14 min 56 sec) 
Heartbeat CPU  3 instructions:  101000001 cycles:  238104174 heartbeat IPC: 0.21002 cumulative IPC: 0.22692 (Simulation time: 0 hr 15 min 0 sec) 
Heartbeat CPU  0 instructions:   99000003 cycles:  239095820 heartbeat IPC: 0.20919 cumulative IPC: 0.21495 (Simulation time: 0 hr 15 min 2 sec) 
Heartbeat CPU  2 instructions:   95000003 cycles:  239454352 heartbeat IPC: 0.16907 cumulative IPC: 0.21349 (Simulation time: 0 hr 15 min 3 sec) 
*** Reached end of trace for Core: 1 Repeating trace: /data3/STREAMING/traces/streaming_phase3_core1.trace.xz
Heartbeat CPU  1 instructions:  100000000 cycles:  241266211 heartbeat IPC: 0.20902 cumulative IPC: 0.21585 (Simulation time: 0 hr 15 min 7 sec) 
Heartbeat CPU  3 instructions:  102000003 cycles:  242835687 heartbeat IPC: 0.21135 cumulative IPC: 0.22658 (Simulation time: 0 hr 15 min 10 sec) 
*** Reached end of trace for Core: 0 Repeating trace: /data3/STREAMING/traces/streaming_phase3_core0.trace.xz
Heartbeat CPU  0 instructions:  100000000 cycles:  243895022 heartbeat IPC: 0.20837 cumulative IPC: 0.21481 (Simulation time: 0 hr 15 min 12 sec) 
Heartbeat CPU  2 instructions:   96000000 cycles:  245363486 heartbeat IPC: 0.16923 cumulative IPC: 0.21228 (Simulation time: 0 hr 15 min 16 sec) 
Heartbeat CPU  1 instructions:  101000000 cycles:  246026545 heartbeat IPC: 0.21007 cumulative IPC: 0.21572 (Simulation time: 0 hr 15 min 17 sec) 
Heartbeat CPU  3 instructions:  103000003 cycles:  247474983 heartbeat IPC: 0.21555 cumulative IPC: 0.22634 (Simulation time: 0 hr 15 min 21 sec) 
Heartbeat CPU  2 instructions:   97000002 cycles:  248454389 heartbeat IPC: 0.32353 cumulative IPC: 0.21384 (Simulation time: 0 hr 15 min 23 sec) 
Heartbeat CPU  0 instructions:  101000000 cycles:  248687046 heartbeat IPC: 0.20868 cumulative IPC: 0.21467 (Simulation time: 0 hr 15 min 23 sec) 
Heartbeat CPU  1 instructions:  102000001 cycles:  250733239 heartbeat IPC: 0.21246 cumulative IPC: 0.21566 (Simulation time: 0 hr 15 min 28 sec) 
Heartbeat CPU  3 instructions:  104000000 cycles:  252181421 heartbeat IPC: 0.21247 cumulative IPC: 0.22605 (Simulation time: 0 hr 15 min 31 sec) 
Heartbeat CPU  0 instructions:  102000001 cycles:  253367940 heartbeat IPC: 0.21363 cumulative IPC: 0.21465 (Simulation time: 0 hr 15 min 34 sec) 
Heartbeat CPU  2 instructions:   98000003 cycles:  254115553 heartbeat IPC: 0.17664 cumulative IPC: 0.21291 (Simulation time: 0 hr 15 min 35 sec) 
Heartbeat CPU  1 instructions:  103000003 cycles:  255587291 heartbeat IPC: 0.20601 cumulative IPC: 0.21545 (Simulation time: 0 hr 15 min 38 sec) 
Heartbeat CPU  3 instructions:  105000001 cycles:  256973897 heartbeat IPC: 0.20866 cumulative IPC: 0.22569 (Simulation time: 0 hr 15 min 41 sec) 
Heartbeat CPU  0 instructions:  103000001 cycles:  258064960 heartbeat IPC: 0.21290 cumulative IPC: 0.21461 (Simulation time: 0 hr 15 min 44 sec) 
Heartbeat CPU  2 instructions:   99000001 cycles:  259987453 heartbeat IPC: 0.17030 cumulative IPC: 0.21183 (Simulation time: 0 hr 15 min 48 sec) 
Heartbeat CPU  1 instructions:  104000000 cycles:  260222599 heartbeat IPC: 0.21573 cumulative IPC: 0.21545 (Simulation time: 0 hr 15 min 49 sec) 
Heartbeat CPU  3 instructions:  106000002 cycles:  261696608 heartbeat IPC: 0.21174 cumulative IPC: 0.22540 (Simulation time: 0 hr 15 min 52 sec) 
Heartbeat CPU  0 instructions:  104000000 cycles:  262810337 heartbeat IPC: 0.21073 cumulative IPC: 0.21454 (Simulation time: 0 hr 15 min 54 sec) 
Heartbeat CPU  1 instructions:  105000001 cycles:  264985967 heartbeat IPC: 0.20994 cumulative IPC: 0.21534 (Simulation time: 0 hr 15 min 59 sec) 
*** Reached end of trace for Core: 2 Repeating trace: /data3/STREAMING/traces/streaming_phase3_core2.trace.xz
Heartbeat CPU  2 instructions:  100000000 cycles:  265730960 heartbeat IPC: 0.17411 cumulative IPC: 0.21091 (Simulation time: 0 hr 16 min 1 sec) 
Heartbeat CPU  3 instructions:  107000003 cycles:  266435443 heartbeat IPC: 0.21102 cumulative IPC: 0.22512 (Simulation time: 0 hr 16 min 2 sec) 
Heartbeat CPU  0 instructions:  105000003 cycles:  267627209 heartbeat IPC: 0.20760 cumulative IPC: 0.21440 (Simulation time: 0 hr 16 min 5 sec) 
Heartbeat CPU  1 instructions:  106000001 cycles:  269771731 heartbeat IPC: 0.20895 cumulative IPC: 0.21522 (Simulation time: 0 hr 16 min 9 sec) 
Heartbeat CPU  3 instructions:  108000000 cycles:  271148208 heartbeat IPC: 0.21219 cumulative IPC: 0.22487 (Simulation time: 0 hr 16 min 12 sec) 
Heartbeat CPU  2 instructions:  101000002 cycles:  271678459 heartbeat IPC: 0.16814 cumulative IPC: 0.20987 (Simulation time: 0 hr 16 min 13 sec) 
Heartbeat CPU  0 instructions:  106000003 cycles:  272340204 heartbeat IPC: 0.21218 cumulative IPC: 0.21435 (Simulation time: 0 hr 16 min 15 sec) 
Heartbeat CPU  1 instructions:  107000003 cycles:  274532835 heartbeat IPC: 0.21004 cumulative IPC: 0.21512 (Simulation time: 0 hr 16 min 20 sec) 
Heartbeat CPU  3 instructions:  109000002 cycles:  275995494 heartbeat IPC: 0.20630 cumulative IPC: 0.22450 (Simulation time: 0 hr 16 min 23 sec) 
Heartbeat CPU  0 instructions:  107000002 cycles:  277051609 heartbeat IPC: 0.21225 cumulative IPC: 0.21431 (Simulation time: 0 hr 16 min 25 sec) 
Heartbeat CPU  2 instructions:  102000000 cycles:  277526980 heartbeat IPC: 0.17098 cumulative IPC: 0.20895 (Simulation time: 0 hr 16 min 26 sec) 
Heartbeat CPU  1 instructions:  108000000 cycles:  279198782 heartbeat IPC: 0.21432 cumulative IPC: 0.21510 (Simulation time: 0 hr 16 min 30 sec) 
Heartbeat CPU  3 instructions:  110000000 cycles:  280735110 heartbeat IPC: 0.21099 cumulative IPC: 0.22425 (Simulation time: 0 hr 16 min 33 sec) 
Heartbeat CPU  0 instructions:  108000000 cycles:  281812645 heartbeat IPC: 0.21004 cumulative IPC: 0.21423 (Simulation time: 0 hr 16 min 35 sec) 
Heartbeat CPU  2 instructions:  103000003 cycles:  283348342 heartbeat IPC: 0.17178 cumulative IPC: 0.20810 (Simulation time: 0 hr 16 min 39 sec) 
Heartbeat CPU  1 instructions:  109000001 cycles:  284021903 heartbeat IPC: 0.20733 cumulative IPC: 0.21495 (Simulation time: 0 hr 16 min 40 sec) 
Heartbeat CPU  3 instructions:  111000002 cycles:  285457773 heartbeat IPC: 0.21175 cumulative IPC: 0.22402 (Simulation time: 0 hr 16 min 43 sec) 
Heartbeat CPU  0 instructions:  109000000 cycles:  286648836 heartbeat IPC: 0.20677 cumulative IPC: 0.21409 (Simulation time: 0 hr 16 min 46 sec) 
Heartbeat CPU  1 instructions:  110000003 cycles:  288976421 heartbeat IPC: 0.20184 cumulative IPC: 0.21471 (Simulation time: 0 hr 16 min 51 sec) 
Heartbeat CPU  2 instructions:  104000000 cycles:  289367340 heartbeat IPC: 0.16614 cumulative IPC: 0.20713 (Simulation time: 0 hr 16 min 52 sec) 
Heartbeat CPU  3 instructions:  112000000 cycles:  290180352 heartbeat IPC: 0.21175 cumulative IPC: 0.22380 (Simulation time: 0 hr 16 min 53 sec) 
Heartbeat CPU  0 instructions:  110000002 cycles:  291377555 heartbeat IPC: 0.21147 cumulative IPC: 0.21405 (Simulation time: 0 hr 16 min 56 sec) 
Heartbeat CPU  1 instructions:  111000002 cycles:  293727125 heartbeat IPC: 0.21049 cumulative IPC: 0.21463 (Simulation time: 0 hr 17 min 1 sec) 
Heartbeat CPU  3 instructions:  113000002 cycles:  294699884 heartbeat IPC: 0.22126 cumulative IPC: 0.22375 (Simulation time: 0 hr 17 min 3 sec) 
Heartbeat CPU  2 instructions:  105000002 cycles:  295286035 heartbeat IPC: 0.16896 cumulative IPC: 0.20629 (Simulation time: 0 hr 17 min 5 sec) 
Heartbeat CPU  0 instructions:  111000003 cycles:  296042201 heartbeat IPC: 0.21438 cumulative IPC: 0.21405 (Simulation time: 0 hr 17 min 6 sec) 
Heartbeat CPU  1 instructions:  112000000 cycles:  298373681 heartbeat IPC: 0.21521 cumulative IPC: 0.21464 (Simulation time: 0 hr 17 min 11 sec) 
Heartbeat CPU  3 instructions:  114000000 cycles:  299469577 heartbeat IPC: 0.20966 cumulative IPC: 0.22351 (Simulation time: 0 hr 17 min 14 sec) 
Heartbeat CPU  0 instructions:  112000000 cycles:  300693477 heartbeat IPC: 0.21499 cumulative IPC: 0.21407 (Simulation time: 0 hr 17 min 17 sec) 
Heartbeat CPU  2 instructions:  106000003 cycles:  301233244 heartbeat IPC: 0.16815 cumulative IPC: 0.20545 (Simulation time: 0 hr 17 min 18 sec) 
Heartbeat CPU  1 instructions:  113000000 cycles:  302898921 heartbeat IPC: 0.22098 cumulative IPC: 0.21474 (Simulation time: 0 hr 17 min 21 sec) 
Heartbeat CPU  3 instructions:  115000003 cycles:  304238393 heartbeat IPC: 0.20970 cumulative IPC: 0.22327 (Simulation time: 0 hr 17 min 24 sec) 
Heartbeat CPU  0 instructions:  113000000 cycles:  305126007 heartbeat IPC: 0.22560 cumulative IPC: 0.21425 (Simulation time: 0 hr 17 min 26 sec) 
Heartbeat CPU  2 instructions:  107000000 cycles:  306961591 heartbeat IPC: 0.17457 cumulative IPC: 0.20482 (Simulation time: 0 hr 17 min 30 sec) 
Heartbeat CPU  1 instructions:  114000002 cycles:  307649149 heartbeat IPC: 0.21052 cumulative IPC: 0.21467 (Simulation time: 0 hr 17 min 32 sec) 
Heartbeat CPU  3 instructions:  116000000 cycles:  308972545 heartbeat IPC: 0.21123 cumulative IPC: 0.22306 (Simulation time: 0 hr 17 min 35 sec) 
Heartbeat CPU  0 instructions:  114000003 cycles:  309738783 heartbeat IPC: 0.21679 cumulative IPC: 0.21429 (Simulation time: 0 hr 17 min 36 sec) 
Heartbeat CPU  1 instructions:  115000000 cycles:  312290104 heartbeat IPC: 0.21547 cumulative IPC: 0.21469 (Simulation time: 0 hr 17 min 42 sec) 
Heartbeat CPU  2 instructions:  108000000 cycles:  312842971 heartbeat IPC: 0.17003 cumulative IPC: 0.20410 (Simulation time: 0 hr 17 min 43 sec) 
Heartbeat CPU  3 instructions:  117000003 cycles:  313658597 heartbeat IPC: 0.21340 cumulative IPC: 0.22290 (Simulation time: 0 hr 17 min 45 sec) 
Heartbeat CPU  0 instructions:  115000000 cycles:  314482496 heartbeat IPC: 0.21080 cumulative IPC: 0.21424 (Simulation time: 0 hr 17 min 47 sec) 
Heartbeat CPU  1 instructions:  116000000 cycles:  317056677 heartbeat IPC: 0.20979 cumulative IPC: 0.21460 (Simulation time: 0 hr 17 min 52 sec) 
Heartbeat CPU  3 instructions:  118000002 cycles:  318513173 heartbeat IPC: 0.20599 cumulative IPC: 0.22262 (Simulation time: 0 hr 17 min 55 sec) 
Heartbeat CPU  2 instructions:  109000002 cycles:  318890314 heartbeat IPC: 0.16536 cumulative IPC: 0.20329 (Simulation time: 0 hr 17 min 56 sec) 
Heartbeat CPU  0 instructions:  116000000 cycles:  319139831 heartbeat IPC: 0.21472 cumulative IPC: 0.21424 (Simulation time: 0 hr 17 min 57 sec) 
Heartbeat CPU  1 instructions:  117000000 cycles:  321709033 heartbeat IPC: 0.21494 cumulative IPC: 0.21461 (Simulation time: 0 hr 18 min 2 sec) 
Heartbeat CPU  3 instructions:  119000003 cycles:  323306104 heartbeat IPC: 0.20864 cumulative IPC: 0.22239 (Simulation time: 0 hr 18 min 6 sec) 
Heartbeat CPU  0 instructions:  117000000 cycles:  323885032 heartbeat IPC: 0.21074 cumulative IPC: 0.21419 (Simulation time: 0 hr 18 min 7 sec) 
Heartbeat CPU  2 instructions:  110000003 cycles:  324686166 heartbeat IPC: 0.17254 cumulative IPC: 0.20269 (Simulation time: 0 hr 18 min 9 sec) 
Heartbeat CPU  1 instructions:  118000002 cycles:  326407388 heartbeat IPC: 0.21284 cumulative IPC: 0.21458 (Simulation time: 0 hr 18 min 13 sec) 
Heartbeat CPU  2 instructions:  111000000 cycles:  326556225 heartbeat IPC: 0.53474 cumulative IPC: 0.20477 (Simulation time: 0 hr 18 min 14 sec) 
Heartbeat CPU  3 instructions:  120000000 cycles:  328020907 heartbeat IPC: 0.21210 cumulative IPC: 0.22223 (Simulation time: 0 hr 18 min 17 sec) 
Heartbeat CPU  0 instructions:  118000003 cycles:  328601581 heartbeat IPC: 0.21202 cumulative IPC: 0.21415 (Simulation time: 0 hr 18 min 18 sec) 
Heartbeat CPU  2 instructions:  112000000 cycles:  331014802 heartbeat IPC: 0.22429 cumulative IPC: 0.20506 (Simulation time: 0 hr 18 min 24 sec) 
Heartbeat CPU  1 instructions:  119000000 cycles:  331194414 heartbeat IPC: 0.20890 cumulative IPC: 0.21449 (Simulation time: 0 hr 18 min 24 sec) 
Heartbeat CPU  3 instructions:  121000001 cycles:  332952418 heartbeat IPC: 0.20278 cumulative IPC: 0.22192 (Simulation time: 0 hr 18 min 28 sec) 
Heartbeat CPU  0 instructions:  119000003 cycles:  333395519 heartbeat IPC: 0.20860 cumulative IPC: 0.21407 (Simulation time: 0 hr 18 min 29 sec) 
Heartbeat CPU  1 instructions:  120000000 cycles:  335810623 heartbeat IPC: 0.21663 cumulative IPC: 0.21452 (Simulation time: 0 hr 18 min 34 sec) 
Heartbeat CPU  2 instructions:  113000001 cycles:  336793637 heartbeat IPC: 0.17305 cumulative IPC: 0.20446 (Simulation time: 0 hr 18 min 36 sec) 
Heartbeat CPU  3 instructions:  122000002 cycles:  337640389 heartbeat IPC: 0.21331 cumulative IPC: 0.22179 (Simulation time: 0 hr 18 min 38 sec) 
Heartbeat CPU  0 instructions:  120000000 cycles:  338018856 heartbeat IPC: 0.21629 cumulative IPC: 0.21410 (Simulation time: 0 hr 18 min 39 sec) 
Heartbeat CPU  1 instructions:  121000002 cycles:  340527576 heartbeat IPC: 0.21200 cumulative IPC: 0.21449 (Simulation time: 0 hr 18 min 44 sec) 
Heartbeat CPU  3 instructions:  123000000 cycles:  342227955 heartbeat IPC: 0.21798 cumulative IPC: 0.22173 (Simulation time: 0 hr 18 min 48 sec) 
Heartbeat CPU  2 instructions:  114000003 cycles:  342560841 heartbeat IPC: 0.17339 cumulative IPC: 0.20389 (Simulation time: 0 hr 18 min 49 sec) 
Heartbeat CPU  0 instructions:  121000002 cycles:  342944705 heartbeat IPC: 0.20301 cumulative IPC: 0.21393 (Simulation time: 0 hr 18 min 50 sec) 
Heartbeat CPU  1 instructions:  122000003 cycles:  345210530 heartbeat IPC: 0.21354 cumulative IPC: 0.21447 (Simulation time: 0 hr 18 min 55 sec) 
Heartbeat CPU  3 instructions:  124000000 cycles:  346894998 heartbeat IPC: 0.21427 cumulative IPC: 0.22162 (Simulation time: 0 hr 18 min 58 sec) 
Heartbeat CPU  0 instructions:  122000002 cycles:  347691756 heartbeat IPC: 0.21066 cumulative IPC: 0.21388 (Simulation time: 0 hr 19 min 0 sec) 
Heartbeat CPU  2 instructions:  115000000 cycles:  348281404 heartbeat IPC: 0.17481 cumulative IPC: 0.20337 (Simulation time: 0 hr 19 min 1 sec) 
Heartbeat CPU  1 instructions:  123000000 cycles:  350119415 heartbeat IPC: 0.20371 cumulative IPC: 0.21431 (Simulation time: 0 hr 19 min 5 sec) 
Heartbeat CPU  3 instructions:  125000001 cycles:  351628353 heartbeat IPC: 0.21127 cumulative IPC: 0.22147 (Simulation time: 0 hr 19 min 8 sec) 
Heartbeat CPU  0 instructions:  123000002 cycles:  352616874 heartbeat IPC: 0.20304 cumulative IPC: 0.21371 (Simulation time: 0 hr 19 min 11 sec) 
Heartbeat CPU  2 instructions:  116000000 cycles:  353992663 heartbeat IPC: 0.17509 cumulative IPC: 0.20287 (Simulation time: 0 hr 19 min 14 sec) 
Heartbeat CPU  1 instructions:  124000000 cycles:  354719105 heartbeat IPC: 0.21741 cumulative IPC: 0.21435 (Simulation time: 0 hr 19 min 15 sec) 
Heartbeat CPU  3 instructions:  126000002 cycles:  356288200 heartbeat IPC: 0.21460 cumulative IPC: 0.22137 (Simulation time: 0 hr 19 min 19 sec) 
Heartbeat CPU  0 instructions:  124000000 cycles:  357452100 heartbeat IPC: 0.20682 cumulative IPC: 0.21361 (Simulation time: 0 hr 19 min 21 sec) 
Heartbeat CPU  1 instructions:  125000001 cycles:  359550670 heartbeat IPC: 0.20697 cumulative IPC: 0.21424 (Simulation time: 0 hr 19 min 26 sec) 
Heartbeat CPU  2 instructions:  117000003 cycles:  359627962 heartbeat IPC: 0.17745 cumulative IPC: 0.20244 (Simulation time: 0 hr 19 min 26 sec) 
Heartbeat CPU  3 instructions:  127000002 cycles:  360897664 heartbeat IPC: 0.21694 cumulative IPC: 0.22131 (Simulation time: 0 hr 19 min 29 sec) 
Heartbeat CPU  0 instructions:  125000002 cycles:  362278839 heartbeat IPC: 0.20718 cumulative IPC: 0.21352 (Simulation time: 0 hr 19 min 32 sec) 
Heartbeat CPU  1 instructions:  126000001 cycles:  364216281 heartbeat IPC: 0.21433 cumulative IPC: 0.21425 (Simulation time: 0 hr 19 min 36 sec) 
Heartbeat CPU  2 instructions:  118000001 cycles:  365355919 heartbeat IPC: 0.17458 cumulative IPC: 0.20197 (Simulation time: 0 hr 19 min 39 sec) 
Heartbeat CPU  3 instructions:  128000000 cycles:  365619495 heartbeat IPC: 0.21178 cumulative IPC: 0.22118 (Simulation time: 0 hr 19 min 39 sec) 
Heartbeat CPU  0 instructions:  126000003 cycles:  366957091 heartbeat IPC: 0.21376 cumulative IPC: 0.21352 (Simulation time: 0 hr 19 min 42 sec) 
Heartbeat CPU  1 instructions:  127000001 cycles:  369012985 heartbeat IPC: 0.20848 cumulative IPC: 0.21416 (Simulation time: 0 hr 19 min 47 sec) 
Heartbeat CPU  3 instructions:  129000003 cycles:  370334780 heartbeat IPC: 0.21208 cumulative IPC: 0.22105 (Simulation time: 0 hr 19 min 50 sec) 
Heartbeat CPU  2 instructions:  119000002 cycles:  371129758 heartbeat IPC: 0.17320 cumulative IPC: 0.20148 (Simulation time: 0 hr 19 min 51 sec) 
Heartbeat CPU  0 instructions:  127000002 cycles:  371671790 heartbeat IPC: 0.21210 cumulative IPC: 0.21350 (Simulation time: 0 hr 19 min 52 sec) 
Heartbeat CPU  1 instructions:  128000000 cycles:  373743905 heartbeat IPC: 0.21138 cumulative IPC: 0.21413 (Simulation time: 0 hr 19 min 57 sec) 
Heartbeat CPU  3 instructions:  130000001 cycles:  375116865 heartbeat IPC: 0.20911 cumulative IPC: 0.22089 (Simulation time: 0 hr 20 min 0 sec) 
Heartbeat CPU  0 instructions:  128000000 cycles:  376402376 heartbeat IPC: 0.21139 cumulative IPC: 0.21347 (Simulation time: 0 hr 20 min 2 sec) 
Heartbeat CPU  2 instructions:  120000000 cycles:  376806586 heartbeat IPC: 0.17615 cumulative IPC: 0.20107 (Simulation time: 0 hr 20 min 3 sec) 
Heartbeat CPU  1 instructions:  129000002 cycles:  378410027 heartbeat IPC: 0.21431 cumulative IPC: 0.21413 (Simulation time: 0 hr 20 min 7 sec) 
[...]
Core_0_L2C_prefetch_late 189978
Core_0_L2C_average_miss_latency 128.34752

Core_0_L2C_rq_access 10184890
Core_0_L2C_rq_forward 0
Core_0_L2C_rq_merged 0
Core_0_L2C_rq_to_cache 10184080
Core_0_L2C_rq_full 0

Core_0_L2C_wq_access 1338184
Core_0_L2C_wq_forward 828
Core_0_L2C_wq_merged 0
Core_0_L2C_wq_to_cache 1338184
Core_0_L2C_wq_full 0

Core_0_L2C_pq_access 17891838
Core_0_L2C_pq_forward 0
Core_0_L2C_pq_merged 27625
Core_0_L2C_pq_to_cache 17864195
Core_0_L2C_pq_full 0

Core_0_L2C_acc_epochs 193346
Core_0_L2C_acc_level_0 48521
Core_0_L2C_acc_level_1 57081
Core_0_L2C_acc_level_2 39030
Core_0_L2C_acc_level_3 19758
Core_0_L2C_acc_level_4 10378
Core_0_L2C_acc_level_5 5968
Core_0_L2C_acc_level_6 2751
Core_0_L2C_acc_level_7 1805
Core_0_L2C_acc_level_8 1596
Core_0_L2C_acc_level_9 6458

Core_0_LLC_total_access 4797085
Core_0_LLC_total_hit 3662211
Core_0_LLC_total_miss 1134874
Core_0_LLC_loads 831149
Core_0_LLC_load_hit 678146
Core_0_LLC_load_miss 153003
Core_0_LLC_RFOs 437553
Core_0_LLC_RFO_hit 257210
Core_0_LLC_RFO_miss 180343
Core_0_LLC_prefetches 2888429
Core_0_LLC_prefetch_hit 2114616
Core_0_LLC_prefetch_miss 773813
Core_0_LLC_writebacks 639954
Core_0_LLC_writeback_hit 612239
Core_0_LLC_writeback_miss 27715
Core_0_LLC_prefetch_requested 0
Core_0_LLC_prefetch_dropped 0
Core_0_LLC_prefetch_issued 0
Core_0_LLC_prefetch_filled 4339459
Core_0_LLC_prefetch_useful 127009
Core_0_LLC_prefetch_useless 4134465
Core_0_LLC_prefetch_late 0
Core_0_LLC_average_miss_latency 736.76577

Core_0_LLC_rq_access 6127883
Core_0_LLC_rq_forward 0
Core_0_LLC_rq_merged 0
Core_0_LLC_rq_to_cache 6127072
Core_0_LLC_rq_full 0

Core_0_LLC_wq_access 2835059
Core_0_LLC_wq_forward 946
Core_0_LLC_wq_merged 0
Core_0_LLC_wq_to_cache 2835059
Core_0_LLC_wq_full 0

Core_0_LLC_pq_access 19651708
Core_0_LLC_pq_forward 0
Core_0_LLC_pq_merged 0
Core_0_LLC_pq_to_cache 19651564
Core_0_LLC_pq_full 0

Core_0_LLC_acc_epochs 768927
Core_0_LLC_acc_level_0 705614
Core_0_LLC_acc_level_1 33533
Core_0_LLC_acc_level_2 15039
Core_0_LLC_acc_level_3 3291
Core_0_LLC_acc_level_4 653
Core_0_LLC_acc_level_5 7621
Core_0_LLC_acc_level_6 618
Core_0_LLC_acc_level_7 582
Core_0_LLC_acc_level_8 162
Core_0_LLC_acc_level_9 1814

Core_0_major_page_fault 0
Core_0_minor_page_fault 24018

Core_1_instructions 150000002
Core_1_cycles 700576055
Core_1_IPC 0.21411

Core_1_branch_prediction_accuracy 96.89610
Core_1_branch_MPKI 5.64947
Core_1_average_ROB_occupancy_at_mispredict 83.99246

Core_1_L1D_total_access 24342594
Core_1_L1D_total_hit 21241608
Core_1_L1D_total_miss 3100986
Core_1_L1D_loads 14128355
Core_1_L1D_load_hit 11886554
Core_1_L1D_load_miss 2241801
Core_1_L1D_RFOs 10214239
Core_1_L1D_RFO_hit 9355054
Core_1_L1D_RFO_miss 859185
Core_1_L1D_prefetches 0
Core_1_L1D_prefetch_hit 0
Core_1_L1D_prefetch_miss 0
Core_1_L1D_writebacks 0
Core_1_L1D_writeback_hit 0
Core_1_L1D_writeback_miss 0
Core_1_L1D_prefetch_requested 0
Core_1_L1D_prefetch_dropped 0
Core_1_L1D_prefetch_issued 0
Core_1_L1D_prefetch_filled 0
Core_1_L1D_prefetch_useful 0
Core_1_L1D_prefetch_useless 0
Core_1_L1D_prefetch_late 0
Core_1_L1D_average_miss_latency 105.12972

Core_1_L1D_rq_access 28737996
Core_1_L1D_rq_forward 0
Core_1_L1D_rq_merged 12994666
Core_1_L1D_rq_to_cache 15740376
Core_1_L1D_rq_full 0

Core_1_L1D_wq_access 14588265
Core_1_L1D_wq_forward 2954
Core_1_L1D_wq_merged 41410
Core_1_L1D_wq_to_cache 14546855
Core_1_L1D_wq_full 0

Core_1_L1D_pq_access 0
Core_1_L1D_pq_forward 0
Core_1_L1D_pq_merged 0
Core_1_L1D_pq_to_cache 0
Core_1_L1D_pq_full 0

Core_1_L1D_acc_epochs 191941
Core_1_L1D_acc_level_0 191941
Core_1_L1D_acc_level_1 0
Core_1_L1D_acc_level_2 0
Core_1_L1D_acc_level_3 0
Core_1_L1D_acc_level_4 0
Core_1_L1D_acc_level_5 0
Core_1_L1D_acc_level_6 0
Core_1_L1D_acc_level_7 0
Core_1_L1D_acc_level_8 0
Core_1_L1D_acc_level_9 0

Core_1_L1I_total_access 32429047
Core_1_L1I_total_hit 26157740
Core_1_L1I_total_miss 6271307
Core_1_L1I_loads 32429047
Core_1_L1I_load_hit 26157740
Core_1_L1I_load_miss 6271307
Core_1_L1I_RFOs 0
Core_1_L1I_RFO_hit 0
Core_1_L1I_RFO_miss 0
Core_1_L1I_prefetches 0
Core_1_L1I_prefetch_hit 0
Core_1_L1I_prefetch_miss 0
Core_1_L1I_writebacks 0
Core_1_L1I_writeback_hit 0
Core_1_L1I_writeback_miss 0
Core_1_L1I_prefetch_requested 0
Core_1_L1I_prefetch_dropped 0
Core_1_L1I_prefetch_issued 0
Core_1_L1I_prefetch_filled 0
Core_1_L1I_prefetch_useful 0
Core_1_L1I_prefetch_useless 0
Core_1_L1I_prefetch_late 0
Core_1_L1I_average_miss_latency 96.04542

Core_1_L1I_rq_access 162289237
Core_1_L1I_rq_forward 0
Core_1_L1I_rq_merged 123270400
Core_1_L1I_rq_to_cache 39018837
Core_1_L1I_rq_full 0

Core_1_L1I_wq_access 0
Core_1_L1I_wq_forward 0
Core_1_L1I_wq_merged 0
Core_1_L1I_wq_to_cache 0
Core_1_L1I_wq_full 0

Core_1_L1I_pq_access 0
Core_1_L1I_pq_forward 0
Core_1_L1I_pq_merged 0
Core_1_L1I_pq_to_cache 0
Core_1_L1I_pq_full 0

Core_1_L1I_acc_epochs 191941
Core_1_L1I_acc_level_0 191941
Core_1_L1I_acc_level_1 0
Core_1_L1I_acc_level_2 0
Core_1_L1I_acc_level_3 0
Core_1_L1I_acc_level_4 0
Core_1_L1I_acc_level_5 0
Core_1_L1I_acc_level_6 0
Core_1_L1I_acc_level_7 0
Core_1_L1I_acc_level_8 0
Core_1_L1I_acc_level_9 0

Core_1_L2C_total_access 22659677
Core_1_L2C_total_hit 18637816
Core_1_L2C_total_miss 4021861
Core_1_L2C_loads 8512828
Core_1_L2C_load_hit 7574392
Core_1_L2C_load_miss 938436
Core_1_L2C_RFOs 858749
Core_1_L2C_RFO_hit 427664
Core_1_L2C_RFO_miss 431085
Core_1_L2C_prefetches 12080356
Core_1_L2C_prefetch_hit 9508600
Core_1_L2C_prefetch_miss 2571756
Core_1_L2C_writebacks 1207744
Core_1_L2C_writeback_hit 1127160
Core_1_L2C_writeback_miss 80584
Core_1_L2C_prefetch_requested 17950345
Core_1_L2C_prefetch_dropped 11388
Core_1_L2C_prefetch_issued 17938957
Core_1_L2C_prefetch_filled 3739979
Core_1_L2C_prefetch_useful 848707
Core_1_L2C_prefetch_useless 2889328
Core_1_L2C_prefetch_late 183967
Core_1_L2C_average_miss_latency 129.95064

Core_1_L2C_rq_access 10154853
Core_1_L2C_rq_forward 0
Core_1_L2C_rq_merged 0
Core_1_L2C_rq_to_cache 10154091
Core_1_L2C_rq_full 0

Core_1_L2C_wq_access 1308024
Core_1_L2C_wq_forward 774
Core_1_L2C_wq_merged 0
Core_1_L2C_wq_to_cache 1308024
Core_1_L2C_wq_full 0

Core_1_L2C_pq_access 17938957
Core_1_L2C_pq_forward 0
Core_1_L2C_pq_merged 24862
Core_1_L2C_pq_to_cache 17914083
Core_1_L2C_pq_full 0

Core_1_L2C_acc_epochs 191941
Core_1_L2C_acc_level_0 52808
Core_1_L2C_acc_level_1 54475
Core_1_L2C_acc_level_2 36868
Core_1_L2C_acc_level_3 18971
Core_1_L2C_acc_level_4 10231
Core_1_L2C_acc_level_5 6115
Core_1_L2C_acc_level_6 2606
Core_1_L2C_acc_level_7 1655
Core_1_L2C_acc_level_8 1599
Core_1_L2C_acc_level_9 6613

Core_1_LLC_total_access 4569139
Core_1_LLC_total_hit 3476374
Core_1_LLC_total_miss 1092765
Core_1_LLC_loads 769547
Core_1_LLC_load_hit 623580
Core_1_LLC_load_miss 145967
Core_1_LLC_RFOs 430690
Core_1_LLC_RFO_hit 255944
Core_1_LLC_RFO_miss 174746
Core_1_LLC_prefetches 2740816
Core_1_LLC_prefetch_hit 1995528
Core_1_LLC_prefetch_miss 745288
Core_1_LLC_writebacks 628086
Core_1_LLC_writeback_hit 601322
Core_1_LLC_writeback_miss 26764
Core_1_LLC_prefetch_requested 0
Core_1_LLC_prefetch_dropped 0
Core_1_LLC_prefetch_issued 0
Core_1_LLC_prefetch_filled 4339459
Core_1_LLC_prefetch_useful 127009
Core_1_LLC_prefetch_useless 4134465
Core_1_LLC_prefetch_late 0
Core_1_LLC_average_miss_latency 765.15657

Core_1_LLC_rq_access 6127883
Core_1_LLC_rq_forward 0
Core_1_LLC_rq_merged 0
Core_1_LLC_rq_to_cache 6127072
Core_1_LLC_rq_full 0

Core_1_LLC_wq_access 2835059
Core_1_LLC_wq_forward 946
Core_1_LLC_wq_merged 0
Core_1_LLC_wq_to_cache 2835059
Core_1_LLC_wq_full 0

Core_1_LLC_pq_access 19651708
Core_1_LLC_pq_forward 0
Core_1_LLC_pq_merged 0
Core_1_LLC_pq_to_cache 19651564
Core_1_LLC_pq_full 0

Core_1_LLC_acc_epochs 768927
Core_1_LLC_acc_level_0 705614
Core_1_LLC_acc_level_1 33533
Core_1_LLC_acc_level_2 15039
Core_1_LLC_acc_level_3 3291
Core_1_LLC_acc_level_4 653
Core_1_LLC_acc_level_5 7621
Core_1_LLC_acc_level_6 618
Core_1_LLC_acc_level_7 582
Core_1_LLC_acc_level_8 162
Core_1_LLC_acc_level_9 1814

Core_1_major_page_fault 0
Core_1_minor_page_fault 23534

Core_2_instructions 150000000
Core_2_cycles 758713622
Core_2_IPC 0.19770

Core_2_branch_prediction_accuracy 96.09904
Core_2_branch_MPKI 7.16625
Core_2_average_ROB_occupancy_at_mispredict 85.33687

Core_2_L1D_total_access 23214994
Core_2_L1D_total_hit 20206572
Core_2_L1D_total_miss 3008422
Core_2_L1D_loads 14384243
Core_2_L1D_load_hit 12157785
Core_2_L1D_load_miss 2226458
Core_2_L1D_RFOs 8830751
Core_2_L1D_RFO_hit 8048787
Core_2_L1D_RFO_miss 781964
Core_2_L1D_prefetches 0
Core_2_L1D_prefetch_hit 0
Core_2_L1D_prefetch_miss 0
Core_2_L1D_writebacks 0
Core_2_L1D_writeback_hit 0
Core_2_L1D_writeback_miss 0
Core_2_L1D_prefetch_requested 0
Core_2_L1D_prefetch_dropped 0
Core_2_L1D_prefetch_issued 0
Core_2_L1D_prefetch_filled 0
Core_2_L1D_prefetch_useful 0
Core_2_L1D_prefetch_useless 0
Core_2_L1D_prefetch_late 0
Core_2_L1D_average_miss_latency 103.52921

Core_2_L1D_rq_access 26136016
Core_2_L1D_rq_forward 0
Core_2_L1D_rq_merged 11130544
Core_2_L1D_rq_to_cache 15000022
Core_2_L1D_rq_full 0

Core_2_L1D_wq_access 11493411
Core_2_L1D_wq_forward 5450
Core_2_L1D_wq_merged 35353
Core_2_L1D_wq_to_cache 11458058
Core_2_L1D_wq_full 0

Core_2_L1D_pq_access 0
Core_2_L1D_pq_forward 0
Core_2_L1D_pq_merged 0
Core_2_L1D_pq_to_cache 0
Core_2_L1D_pq_full 0

Core_2_L1D_acc_epochs 184354
Core_2_L1D_acc_level_0 184354
Core_2_L1D_acc_level_1 0
Core_2_L1D_acc_level_2 0
Core_2_L1D_acc_level_3 0
Core_2_L1D_acc_level_4 0
Core_2_L1D_acc_level_5 0
Core_2_L1D_acc_level_6 0
Core_2_L1D_acc_level_7 0
Core_2_L1D_acc_level_8 0
Core_2_L1D_acc_level_9 0

Core_2_L1I_total_access 29922652
Core_2_L1I_total_hit 24885270
Core_2_L1I_total_miss 5037382
Core_2_L1I_loads 29922652
Core_2_L1I_load_hit 24885270
Core_2_L1I_load_miss 5037382
Core_2_L1I_RFOs 0
Core_2_L1I_RFO_hit 0
Core_2_L1I_RFO_miss 0
Core_2_L1I_prefetches 0
Core_2_L1I_prefetch_hit 0
Core_2_L1I_prefetch_miss 0
Core_2_L1I_writebacks 0
Core_2_L1I_writeback_hit 0
Core_2_L1I_writeback_miss 0
Core_2_L1I_prefetch_requested 0
Core_2_L1I_prefetch_dropped 0
Core_2_L1I_prefetch_issued 0
Core_2_L1I_prefetch_filled 0
Core_2_L1I_prefetch_useful 0
Core_2_L1I_prefetch_useless 0
Core_2_L1I_prefetch_late 0
Core_2_L1I_average_miss_latency 107.98165

Core_2_L1I_rq_access 149999952
Core_2_L1I_rq_forward 0
Core_2_L1I_rq_merged 117245277
Core_2_L1I_rq_to_cache 32754675
Core_2_L1I_rq_full 0

Core_2_L1I_wq_access 0
Core_2_L1I_wq_forward 0
Core_2_L1I_wq_merged 0
Core_2_L1I_wq_to_cache 0
Core_2_L1I_wq_full 0

Core_2_L1I_pq_access 0
Core_2_L1I_pq_forward 0
Core_2_L1I_pq_merged 0
Core_2_L1I_pq_to_cache 0
Core_2_L1I_pq_full 0

Core_2_L1I_acc_epochs 184354
Core_2_L1I_acc_level_0 184354
Core_2_L1I_acc_level_1 0
Core_2_L1I_acc_level_2 0
Core_2_L1I_acc_level_3 0
Core_2_L1I_acc_level_4 0
Core_2_L1I_acc_level_5 0
Core_2_L1I_acc_level_6 0
Core_2_L1I_acc_level_7 0
Core_2_L1I_acc_level_8 0
Core_2_L1I_acc_level_9 0

Core_2_L2C_total_access 22959954
Core_2_L2C_total_hit 14866611
Core_2_L2C_total_miss 8093343
Core_2_L2C_loads 7263519
Core_2_L2C_load_hit 5386342
Core_2_L2C_load_miss 1877177
Core_2_L2C_RFOs 781568
Core_2_L2C_RFO_hit 377219
Core_2_L2C_RFO_miss 404349
Core_2_L2C_prefetches 13626509
Core_2_L2C_prefetch_hit 8013781
Core_2_L2C_prefetch_miss 5612728
Core_2_L2C_writebacks 1288358
Core_2_L2C_writeback_hit 1089269
Core_2_L2C_writeback_miss 199089
Core_2_L2C_prefetch_requested 19552228
Core_2_L2C_prefetch_dropped 42059
Core_2_L2C_prefetch_issued 19510169
Core_2_L2C_prefetch_filled 7391306
Core_2_L2C_prefetch_useful 1309808
Core_2_L2C_prefetch_useless 6079318
Core_2_L2C_prefetch_late 151316
Core_2_L2C_average_miss_latency 114.94641

Core_2_L2C_rq_access 8045804
Core_2_L2C_rq_forward 0
Core_2_L2C_rq_merged 0
Core_2_L2C_rq_to_cache 8045087
Core_2_L2C_rq_full 0

Core_2_L2C_wq_access 1288358
Core_2_L2C_wq_forward 741
Core_2_L2C_wq_merged 0
Core_2_L2C_wq_to_cache 1288358
Core_2_L2C_wq_full 0

Core_2_L2C_pq_access 19510169
Core_2_L2C_pq_forward 0
Core_2_L2C_pq_merged 20551
Core_2_L2C_pq_to_cache 19489594
Core_2_L2C_pq_full 0

Core_2_L2C_acc_epochs 184354
Core_2_L2C_acc_level_0 41076
Core_2_L2C_acc_level_1 78646
Core_2_L2C_acc_level_2 31641
Core_2_L2C_acc_level_3 10014
Core_2_L2C_acc_level_4 4046
Core_2_L2C_acc_level_5 3024
Core_2_L2C_acc_level_6 3049
Core_2_L2C_acc_level_7 2861
Core_2_L2C_acc_level_8 3780
Core_2_L2C_acc_level_9 6217

Core_2_LLC_total_access 8677073
Core_2_LLC_total_hit 7657265
Core_2_LLC_total_miss 1019808
Core_2_LLC_loads 1726418
Core_2_LLC_load_hit 1626669
Core_2_LLC_load_miss 99749
Core_2_LLC_RFOs 403885
Core_2_LLC_RFO_hit 284385
Core_2_LLC_RFO_miss 119500
Core_2_LLC_prefetches 5763580
Core_2_LLC_prefetch_hit 4976988
Core_2_LLC_prefetch_miss 786592
Core_2_LLC_writebacks 783190
Core_2_LLC_writeback_hit 769223
Core_2_LLC_writeback_miss 13967
Core_2_LLC_prefetch_requested 0
Core_2_LLC_prefetch_dropped 0
Core_2_LLC_prefetch_issued 0
Core_2_LLC_prefetch_filled 4339459
Core_2_LLC_prefetch_useful 127009
Core_2_LLC_prefetch_useless 4134465
Core_2_LLC_prefetch_late 0
Core_2_LLC_average_miss_latency 819.89582

Core_2_LLC_rq_access 6127883
Core_2_LLC_rq_forward 0
Core_2_LLC_rq_merged 0
Core_2_LLC_rq_to_cache 6127072
Core_2_LLC_rq_full 0

Core_2_LLC_wq_access 2835059
Core_2_LLC_wq_forward 946
Core_2_LLC_wq_merged 0
Core_2_LLC_wq_to_cache 2835059
Core_2_LLC_wq_full 0

Core_2_LLC_pq_access 19651708
Core_2_LLC_pq_forward 0
Core_2_LLC_pq_merged 0
Core_2_LLC_pq_to_cache 19651564
Core_2_LLC_pq_full 0

Core_2_LLC_acc_epochs 768927
Core_2_LLC_acc_level_0 705614
Core_2_LLC_acc_level_1 33533
Core_2_LLC_acc_level_2 15039
Core_2_LLC_acc_level_3 3291
Core_2_LLC_acc_level_4 653
Core_2_LLC_acc_level_5 7621
Core_2_LLC_acc_level_6 618
Core_2_LLC_acc_level_7 582
Core_2_LLC_acc_level_8 162
Core_2_LLC_acc_level_9 1814

Core_2_major_page_fault 0
Core_2_minor_page_fault 18236

Core_3_instructions 150000002
Core_3_cycles 679147835
Core_3_IPC 0.22087

Core_3_branch_prediction_accuracy 96.83438
Core_3_branch_MPKI 5.73422
Core_3_average_ROB_occupancy_at_mispredict 81.52004

Core_3_L1D_total_access 23679763
Core_3_L1D_total_hit 20659675
Core_3_L1D_total_miss 3020088
Core_3_L1D_loads 13841274
Core_3_L1D_load_hit 11641174
Core_3_L1D_load_miss 2200100
Core_3_L1D_RFOs 9838489
Core_3_L1D_RFO_hit 9018501
Core_3_L1D_RFO_miss 819988
Core_3_L1D_prefetches 0
Core_3_L1D_prefetch_hit 0
Core_3_L1D_prefetch_miss 0
Core_3_L1D_writebacks 0
Core_3_L1D_writeback_hit 0
Core_3_L1D_writeback_miss 0
Core_3_L1D_prefetch_requested 0
Core_3_L1D_prefetch_dropped 0
Core_3_L1D_prefetch_issued 0
Core_3_L1D_prefetch_filled 0
Core_3_L1D_prefetch_useful 0
Core_3_L1D_prefetch_useless 0
Core_3_L1D_prefetch_late 0
Core_3_L1D_average_miss_latency 108.33002

Core_3_L1D_rq_access 29206522
Core_3_L1D_rq_forward 0
Core_3_L1D_rq_merged 13230017
Core_3_L1D_rq_to_cache 15973335
Core_3_L1D_rq_full 0

Core_3_L1D_wq_access 14441119
Core_3_L1D_wq_forward 3170
Core_3_L1D_wq_merged 41744
Core_3_L1D_wq_to_cache 14399375
Core_3_L1D_wq_full 0

Core_3_L1D_pq_access 0
Core_3_L1D_pq_forward 0
Core_3_L1D_pq_merged 0
Core_3_L1D_pq_to_cache 0
Core_3_L1D_pq_full 0

Core_3_L1D_acc_epochs 196458
Core_3_L1D_acc_level_0 196458
Core_3_L1D_acc_level_1 0
Core_3_L1D_acc_level_2 0
Core_3_L1D_acc_level_3 0
Core_3_L1D_acc_level_4 0
Core_3_L1D_acc_level_5 0
Core_3_L1D_acc_level_6 0
Core_3_L1D_acc_level_7 0
Core_3_L1D_acc_level_8 0
Core_3_L1D_acc_level_9 0

Core_3_L1I_total_access 32151586
Core_3_L1I_total_hit 26137914
Core_3_L1I_total_miss 6013672
Core_3_L1I_loads 32151586
Core_3_L1I_load_hit 26137914
Core_3_L1I_load_miss 6013672
Core_3_L1I_RFOs 0
Core_3_L1I_RFO_hit 0
Core_3_L1I_RFO_miss 0
Core_3_L1I_prefetches 0
Core_3_L1I_prefetch_hit 0
Core_3_L1I_prefetch_miss 0
Core_3_L1I_writebacks 0
Core_3_L1I_writeback_hit 0
Core_3_L1I_writeback_miss 0
Core_3_L1I_prefetch_requested 0
Core_3_L1I_prefetch_dropped 0
Core_3_L1I_prefetch_issued 0
Core_3_L1I_prefetch_filled 0
Core_3_L1I_prefetch_useful 0
Core_3_L1I_prefetch_useless 0
Core_3_L1I_prefetch_late 0
Core_3_L1I_average_miss_latency 99.25741

Core_3_L1I_rq_access 166768306
Core_3_L1I_rq_forward 0
Core_3_L1I_rq_merged 127079685
Core_3_L1I_rq_to_cache 39688621
Core_3_L1I_rq_full 0

Core_3_L1I_wq_access 0
Core_3_L1I_wq_forward 0
Core_3_L1I_wq_merged 0
Core_3_L1I_wq_to_cache 0
Core_3_L1I_wq_full 0

Core_3_L1I_pq_access 0
Core_3_L1I_pq_forward 0
Core_3_L1I_pq_merged 0
Core_3_L1I_pq_to_cache 0
Core_3_L1I_pq_full 0

Core_3_L1I_acc_epochs 196458
Core_3_L1I_acc_level_0 196458
Core_3_L1I_acc_level_1 0
Core_3_L1I_acc_level_2 0
Core_3_L1I_acc_level_3 0
Core_3_L1I_acc_level_4 0
Core_3_L1I_acc_level_5 0
Core_3_L1I_acc_level_6 0
Core_3_L1I_acc_level_7 0
Core_3_L1I_acc_level_8 0
Core_3_L1I_acc_level_9 0

Core_3_L2C_total_access 21829295
Core_3_L2C_total_hit 17741827
Core_3_L2C_total_miss 4087468
Core_3_L2C_loads 8213495
Core_3_L2C_load_hit 7258811
Core_3_L2C_load_miss 954684
Core_3_L2C_RFOs 819620
Core_3_L2C_RFO_hit 410312
Core_3_L2C_RFO_miss 409308
Core_3_L2C_prefetches 11641879
Core_3_L2C_prefetch_hit 9001323
Core_3_L2C_prefetch_miss 2640556
Core_3_L2C_writebacks 1154301
Core_3_L2C_writeback_hit 1071381
Core_3_L2C_writeback_miss 82920
Core_3_L2C_prefetch_requested 17742987
Core_3_L2C_prefetch_dropped 10885
Core_3_L2C_prefetch_issued 17732102
Core_3_L2C_prefetch_filled 3899802
Core_3_L2C_prefetch_useful 930788
Core_3_L2C_prefetch_useless 2967213
Core_3_L2C_prefetch_late 186239
Core_3_L2C_average_miss_latency 134.91140

Core_3_L2C_rq_access 10094520
Core_3_L2C_rq_forward 0
Core_3_L2C_rq_merged 0
Core_3_L2C_rq_to_cache 10093798
Core_3_L2C_rq_full 0

Core_3_L2C_wq_access 1291749
Core_3_L2C_wq_forward 746
Core_3_L2C_wq_merged 0
Core_3_L2C_wq_to_cache 1291749
Core_3_L2C_wq_full 0

Core_3_L2C_pq_access 17732102
Core_3_L2C_pq_forward 0
Core_3_L2C_pq_merged 7371
Core_3_L2C_pq_to_cache 17724707
Core_3_L2C_pq_full 0

Core_3_L2C_acc_epochs 196458
Core_3_L2C_acc_level_0 49600
Core_3_L2C_acc_level_1 56224
Core_3_L2C_acc_level_2 38640
Core_3_L2C_acc_level_3 19921
Core_3_L2C_acc_level_4 10519
Core_3_L2C_acc_level_5 6281
Core_3_L2C_acc_level_6 2876
Core_3_L2C_acc_level_7 1722
Core_3_L2C_acc_level_8 1666
Core_3_L2C_acc_level_9 9009

Core_3_LLC_total_access 4615050
Core_3_LLC_total_hit 3462908
Core_3_LLC_total_miss 1152142
Core_3_LLC_loads 789242
Core_3_LLC_load_hit 635575
Core_3_LLC_load_miss 153667
Core_3_LLC_RFOs 408993
Core_3_LLC_RFO_hit 240923
Core_3_LLC_RFO_miss 168070
Core_3_LLC_prefetches 2806133
Core_3_LLC_prefetch_hit 2003021
Core_3_LLC_prefetch_miss 803112
Core_3_LLC_writebacks 610682
Core_3_LLC_writeback_hit 583389
Core_3_LLC_writeback_miss 27293
Core_3_LLC_prefetch_requested 0
Core_3_LLC_prefetch_dropped 0
Core_3_LLC_prefetch_issued 0
Core_3_LLC_prefetch_filled 4339459
Core_3_LLC_prefetch_useful 127009
Core_3_LLC_prefetch_useless 4134465
Core_3_LLC_prefetch_late 0
Core_3_LLC_average_miss_latency 725.72332

Core_3_LLC_rq_access 6127883
Core_3_LLC_rq_forward 0
Core_3_LLC_rq_merged 0
Core_3_LLC_rq_to_cache 6127072
Core_3_LLC_rq_full 0

Core_3_LLC_wq_access 2835059
Core_3_LLC_wq_forward 946
Core_3_LLC_wq_merged 0
Core_3_LLC_wq_to_cache 2835059
Core_3_LLC_wq_full 0

Core_3_LLC_pq_access 19651708
Core_3_LLC_pq_forward 0
Core_3_LLC_pq_merged 0
Core_3_LLC_pq_to_cache 19651564
Core_3_LLC_pq_full 0

Core_3_LLC_acc_epochs 768927
Core_3_LLC_acc_level_0 705614
Core_3_LLC_acc_level_1 33533
Core_3_LLC_acc_level_2 15039
Core_3_LLC_acc_level_3 3291
Core_3_LLC_acc_level_4 653
Core_3_LLC_acc_level_5 7621
Core_3_LLC_acc_level_6 618
Core_3_LLC_acc_level_7 582
Core_3_LLC_acc_level_8 162
Core_3_LLC_acc_level_9 1814

Core_3_major_page_fault 0
Core_3_minor_page_fault 24231

Channel_0_RQ_row_buffer_hit 534390
Channel_0_RQ_row_buffer_miss 1766150
Channel_0_WQ_row_buffer_hit 60312
Channel_0_WQ_row_buffer_miss 385274
Channel_0_WQ_full 0
Channel_0_dbus_congested 826164

Channel_1_RQ_row_buffer_hit 533858
Channel_1_RQ_row_buffer_miss 1763241
Channel_1_WQ_row_buffer_hit 61219
Channel_1_WQ_row_buffer_miss 384438
Channel_1_WQ_full 0
Channel_1_dbus_congested 821335

avg_congested_cycle 9

DRAM_bw_pochs 3075708
DRAM_bw_level_0 2821331
DRAM_bw_level_1 191771
DRAM_bw_level_2 44509
DRAM_bw_level_3 18097
