*************************************************
   ChampSim Multicore Out-of-Order Simulator
   Last compiled: Mar 31 2025 20:14:32
*************************************************
parsing config file: /data3/config/spp_ppf_dev.ini

trace_0 /data3/STREAMING/traces/streaming_phase1_core0.trace.xz
trace_1 /data3/STREAMING/traces/streaming_phase1_core1.trace.xz
trace_2 /data3/STREAMING/traces/streaming_phase1_core2.trace.xz
trace_3 /data3/STREAMING/traces/streaming_phase1_core3.trace.xz
adding L2C_PREFETCHER: SPP_PPF_dev
Initialize SIGNATURE TABLE
ST_SET: 1
ST_WAY: 256
ST_TAG_BIT: 16
ST_TAG_MASK: ffff

Initialize PATTERN TABLE
PT_SET: 2048
PT_WAY: 4
SIG_DELTA_BIT: 7
C_SIG_BIT: 4
C_DELTA_BIT: 4

Initialize PREFETCH FILTER
FILTER_SET: 1024

Initialize PERCEPTRON
PERC_ENTRIES: 4096
PERC_FEATURES: 9
Initialize SIGNATURE TABLE
ST_SET: 1
ST_WAY: 256
ST_TAG_BIT: 16
ST_TAG_MASK: ffff

Initialize PATTERN TABLE
PT_SET: 2048
PT_WAY: 4
SIG_DELTA_BIT: 7
C_SIG_BIT: 4
C_DELTA_BIT: 4

Initialize PREFETCH FILTER
FILTER_SET: 1024

Initialize PERCEPTRON
PERC_ENTRIES: 4096
PERC_FEATURES: 9
PERC_THRESH_HI: -5
PERC_THRESH_LO: -15

adding L2C_PREFETCHER: SPP_PPF_dev
Initialize SIGNATURE TABLE
ST_SET: 1
ST_WAY: 256
ST_TAG_BIT: 16
ST_TAG_MASK: ffff

Initialize PATTERN TABLE
PT_SET: 2048
PT_WAY: 4
SIG_DELTA_BIT: 7
C_SIG_BIT: 4
C_DELTA_BIT: 4

Initialize PREFETCH FILTER
FILTER_SET: 1024

Initialize PERCEPTRON
PERC_ENTRIES: 4096
PERC_FEATURES: 9
Initialize SIGNATURE TABLE
ST_SET: 1
ST_WAY: 256
ST_TAG_BIT: 16
ST_TAG_MASK: ffff

Initialize PATTERN TABLE
PT_SET: 2048
PT_WAY: 4
SIG_DELTA_BIT: 7
C_SIG_BIT: 4
C_DELTA_BIT: 4

Initialize PREFETCH FILTER
FILTER_SET: 1024

Initialize PERCEPTRON
PERC_ENTRIES: 4096
PERC_FEATURES: 9
PERC_THRESH_HI: -5
PERC_THRESH_LO: -15

adding L2C_PREFETCHER: SPP_PPF_dev
Initialize SIGNATURE TABLE
ST_SET: 1
ST_WAY: 256
ST_TAG_BIT: 16
ST_TAG_MASK: ffff

Initialize PATTERN TABLE
PT_SET: 2048
PT_WAY: 4
SIG_DELTA_BIT: 7
C_SIG_BIT: 4
C_DELTA_BIT: 4

Initialize PREFETCH FILTER
FILTER_SET: 1024

Initialize PERCEPTRON
PERC_ENTRIES: 4096
PERC_FEATURES: 9
Initialize SIGNATURE TABLE
ST_SET: 1
ST_WAY: 256
ST_TAG_BIT: 16
ST_TAG_MASK: ffff

Initialize PATTERN TABLE
PT_SET: 2048
PT_WAY: 4
SIG_DELTA_BIT: 7
C_SIG_BIT: 4
C_DELTA_BIT: 4

Initialize PREFETCH FILTER
FILTER_SET: 1024

Initialize PERCEPTRON
PERC_ENTRIES: 4096
PERC_FEATURES: 9
PERC_THRESH_HI: -5
PERC_THRESH_LO: -15

adding L2C_PREFETCHER: SPP_PPF_dev
Initialize SIGNATURE TABLE
ST_SET: 1
ST_WAY: 256
ST_TAG_BIT: 16
ST_TAG_MASK: ffff

Initialize PATTERN TABLE
PT_SET: 2048
PT_WAY: 4
SIG_DELTA_BIT: 7
C_SIG_BIT: 4
C_DELTA_BIT: 4

Initialize PREFETCH FILTER
FILTER_SET: 1024

Initialize PERCEPTRON
PERC_ENTRIES: 4096
PERC_FEATURES: 9
Initialize SIGNATURE TABLE
ST_SET: 1
ST_WAY: 256
ST_TAG_BIT: 16
ST_TAG_MASK: ffff

Initialize PATTERN TABLE
PT_SET: 2048
PT_WAY: 4
SIG_DELTA_BIT: 7
C_SIG_BIT: 4
C_DELTA_BIT: 4

Initialize PREFETCH FILTER
FILTER_SET: 1024

Initialize PERCEPTRON
PERC_ENTRIES: 4096
PERC_FEATURES: 9
PERC_THRESH_HI: -5
PERC_THRESH_LO: -15

Initialize SHIP state
warmup_instructions 50000000
simulation_instructions 150000000
champsim_seed 8850
measure_ipc 0
measure_ipc_epoch 1000
measure_dram_bw 1
measure_dram_bw_epoch 256
measure_cache_acc 1
measure_cache_acc_epoch 1024
l1d_perfect 0
l2c_perfect 0
llc_perfect 0
l1d_semi_perfect 0
l2c_semi_perfect 0
llc_semi_perfect 0
semi_perfect_cache_page_buffer_size 64

num_cpus 4
cpu_freq 4000
dram_io_freq 2400
page_size 4096
block_size 64
max_read_per_cycle 8
max_fill_per_cycle 1
dram_channels 2
log2_dram_channels 1
dram_ranks 1
dram_banks 8
dram_rows 65536
dram_columns 128
dram_row_size 8
dram_size 8192
dram_pages 2097152

fetch_width 6
decode_width 6
exec_width 4
lq_width 2
sq_width 2
retire_width 4
scheduler_size 128
branch_mispredict_penalty 20
rob_size 256
lq_size 72
sq_size 56
num_instr_destinations_sparc 4
num_instr_destinations 2
num_instr_sources 4

itlb_set 16
itlb_way 8
itlb_rq_size 16
itlb_wq_size 16
itlb_pq_size 0
itlb_mshr_size 8
itlb_latency 1

dtlb_set 16
dtlb_way 4
dtlb_rq_size 16
dtlb_wq_size 16
dtlb_pq_size 0
dtlb_mshr_size 8
dtlb_latency 1

stlb_set 128
stlb_way 12
stlb_rq_size 32
stlb_wq_size 32
stlb_pq_size 0
stlb_mshr_size 16
stlb_latency 8

l1i_size 32
l1i_set 64
l1i_way 8
l1i_rq_size 64
l1i_wq_size 64
l1i_pq_size 8
l1i_mshr_size 8
l1i_latency 1

l1d_size 32
l1d_set 64
l1d_way 8
l1d_rq_size 64
l1d_wq_size 64
l1d_pq_size 8
l1d_mshr_size 16
l1d_latency 4

l2c_size 256
l2c_set 512
l2c_way 8
l2c_rq_size 32
l2c_wq_size 32
l2c_pq_size 32
l2c_mshr_size 32
l2c_latency 10

llc_size 8192
llc_set 8192
llc_way 16
llc_rq_size 128
llc_wq_size 128
llc_pq_size 128
llc_mshr_size 256
llc_latency 20

dram_channel_width 8
dram_wq_size 64
dram_rq_size 64
tRP 15
tRCD 15
tCAS 12.5
dram_dbus_turn_around_time 30
dram_write_high_wm 56
dram_write_low_wm 48
min_dram_writes_per_switch 16
dram_mtps 2400
dram_dbus_return_time 13


Heartbeat CPU  2 instructions:    1000003 cycles:     309353 heartbeat IPC: 3.23256 cumulative IPC: 3.23256 (Simulation time: 0 hr 0 min 4 sec) 
Heartbeat CPU  1 instructions:    1000000 cycles:     579306 heartbeat IPC: 1.72620 cumulative IPC: 1.72620 (Simulation time: 0 hr 0 min 8 sec) 
Heartbeat CPU  3 instructions:    1000000 cycles:     600658 heartbeat IPC: 1.66484 cumulative IPC: 1.66484 (Simulation time: 0 hr 0 min 8 sec) 
Heartbeat CPU  0 instructions:    1000003 cycles:     602272 heartbeat IPC: 1.66038 cumulative IPC: 1.66038 (Simulation time: 0 hr 0 min 8 sec) 
Heartbeat CPU  2 instructions:    2000002 cycles:     625410 heartbeat IPC: 3.16398 cumulative IPC: 3.19791 (Simulation time: 0 hr 0 min 9 sec) 
Heartbeat CPU  2 instructions:    3000001 cycles:     929399 heartbeat IPC: 3.28959 cumulative IPC: 3.22789 (Simulation time: 0 hr 0 min 14 sec) 
Heartbeat CPU  1 instructions:    2000001 cycles:    1062064 heartbeat IPC: 2.07143 cumulative IPC: 1.88313 (Simulation time: 0 hr 0 min 16 sec) 
Heartbeat CPU  3 instructions:    2000000 cycles:    1096018 heartbeat IPC: 2.01873 cumulative IPC: 1.82479 (Simulation time: 0 hr 0 min 17 sec) 
Heartbeat CPU  0 instructions:    2000000 cycles:    1123847 heartbeat IPC: 1.91726 cumulative IPC: 1.77960 (Simulation time: 0 hr 0 min 17 sec) 
Heartbeat CPU  2 instructions:    4000000 cycles:    1230992 heartbeat IPC: 3.31572 cumulative IPC: 3.24941 (Simulation time: 0 hr 0 min 19 sec) 
Heartbeat CPU  2 instructions:    5000000 cycles:    1540018 heartbeat IPC: 3.23597 cumulative IPC: 3.24672 (Simulation time: 0 hr 0 min 24 sec) 
Heartbeat CPU  1 instructions:    3000001 cycles:    1542464 heartbeat IPC: 2.08160 cumulative IPC: 1.94494 (Simulation time: 0 hr 0 min 24 sec) 
Heartbeat CPU  3 instructions:    3000003 cycles:    1617047 heartbeat IPC: 1.91928 cumulative IPC: 1.85524 (Simulation time: 0 hr 0 min 26 sec) 
Heartbeat CPU  0 instructions:    3000003 cycles:    1617257 heartbeat IPC: 2.02672 cumulative IPC: 1.85499 (Simulation time: 0 hr 0 min 26 sec) 
Heartbeat CPU  2 instructions:    6000000 cycles:    1848006 heartbeat IPC: 3.24688 cumulative IPC: 3.24674 (Simulation time: 0 hr 0 min 30 sec) 
Heartbeat CPU  1 instructions:    4000000 cycles:    1990709 heartbeat IPC: 2.23092 cumulative IPC: 2.00933 (Simulation time: 0 hr 0 min 32 sec) 
Heartbeat CPU  0 instructions:    4000000 cycles:    2112725 heartbeat IPC: 2.01829 cumulative IPC: 1.89329 (Simulation time: 0 hr 0 min 34 sec) 
Heartbeat CPU  3 instructions:    4000000 cycles:    2115333 heartbeat IPC: 2.00687 cumulative IPC: 1.89096 (Simulation time: 0 hr 0 min 34 sec) 
Heartbeat CPU  1 instructions:    5000002 cycles:    2447768 heartbeat IPC: 2.18791 cumulative IPC: 2.04268 (Simulation time: 0 hr 0 min 38 sec) 
Heartbeat CPU  3 instructions:    5000000 cycles:    2602019 heartbeat IPC: 2.05471 cumulative IPC: 1.92158 (Simulation time: 0 hr 0 min 41 sec) 
Heartbeat CPU  2 instructions:    7000000 cycles:    2636019 heartbeat IPC: 1.26901 cumulative IPC: 2.65552 (Simulation time: 0 hr 0 min 41 sec) 
Heartbeat CPU  0 instructions:    5000002 cycles:    2672302 heartbeat IPC: 1.78707 cumulative IPC: 1.87105 (Simulation time: 0 hr 0 min 42 sec) 
Heartbeat CPU  1 instructions:    6000001 cycles:    2916410 heartbeat IPC: 2.13382 cumulative IPC: 2.05732 (Simulation time: 0 hr 0 min 46 sec) 
Heartbeat CPU  3 instructions:    6000000 cycles:    2976364 heartbeat IPC: 2.67133 cumulative IPC: 2.01588 (Simulation time: 0 hr 0 min 46 sec) 
Heartbeat CPU  0 instructions:    6000001 cycles:    3204235 heartbeat IPC: 1.87993 cumulative IPC: 1.87252 (Simulation time: 0 hr 0 min 49 sec) 
Heartbeat CPU  2 instructions:    8000000 cycles:    3295033 heartbeat IPC: 1.51742 cumulative IPC: 2.42790 (Simulation time: 0 hr 0 min 50 sec) 
Heartbeat CPU  1 instructions:    7000001 cycles:    3525175 heartbeat IPC: 1.64267 cumulative IPC: 1.98572 (Simulation time: 0 hr 0 min 53 sec) 
Heartbeat CPU  3 instructions:    7000000 cycles:    3547761 heartbeat IPC: 1.75010 cumulative IPC: 1.97308 (Simulation time: 0 hr 0 min 53 sec) 
Heartbeat CPU  0 instructions:    7000001 cycles:    3799331 heartbeat IPC: 1.68040 cumulative IPC: 1.84243 (Simulation time: 0 hr 0 min 57 sec) 
Heartbeat CPU  2 instructions:    9000000 cycles:    3923016 heartbeat IPC: 1.59240 cumulative IPC: 2.29415 (Simulation time: 0 hr 0 min 59 sec) 
Heartbeat CPU  3 instructions:    8000000 cycles:    4046423 heartbeat IPC: 2.00537 cumulative IPC: 1.97705 (Simulation time: 0 hr 1 min 0 sec) 
Heartbeat CPU  1 instructions:    8000000 cycles:    4074695 heartbeat IPC: 1.81977 cumulative IPC: 1.96334 (Simulation time: 0 hr 1 min 1 sec) 
Heartbeat CPU  0 instructions:    8000000 cycles:    4336623 heartbeat IPC: 1.86118 cumulative IPC: 1.84475 (Simulation time: 0 hr 1 min 4 sec) 
Heartbeat CPU  2 instructions:   10000000 cycles:    4534312 heartbeat IPC: 1.63587 cumulative IPC: 2.20541 (Simulation time: 0 hr 1 min 7 sec) 
Heartbeat CPU  3 instructions:    9000000 cycles:    4574706 heartbeat IPC: 1.89292 cumulative IPC: 1.96734 (Simulation time: 0 hr 1 min 8 sec) 
Heartbeat CPU  1 instructions:    9000002 cycles:    4607673 heartbeat IPC: 1.87625 cumulative IPC: 1.95326 (Simulation time: 0 hr 1 min 8 sec) 
Heartbeat CPU  0 instructions:    9000000 cycles:    4852652 heartbeat IPC: 1.93788 cumulative IPC: 1.85466 (Simulation time: 0 hr 1 min 12 sec) 
Heartbeat CPU  2 instructions:   11000002 cycles:    5043454 heartbeat IPC: 1.96409 cumulative IPC: 2.18105 (Simulation time: 0 hr 1 min 15 sec) 
Heartbeat CPU  3 instructions:   10000000 cycles:    5127509 heartbeat IPC: 1.80896 cumulative IPC: 1.95026 (Simulation time: 0 hr 1 min 16 sec) 
Heartbeat CPU  1 instructions:   10000001 cycles:    5185100 heartbeat IPC: 1.73182 cumulative IPC: 1.92860 (Simulation time: 0 hr 1 min 17 sec) 
Heartbeat CPU  2 instructions:   12000000 cycles:    5352936 heartbeat IPC: 3.23120 cumulative IPC: 2.24176 (Simulation time: 0 hr 1 min 19 sec) 
Heartbeat CPU  0 instructions:   10000003 cycles:    5389047 heartbeat IPC: 1.86430 cumulative IPC: 1.85562 (Simulation time: 0 hr 1 min 20 sec) 
Heartbeat CPU  3 instructions:   11000000 cycles:    5656088 heartbeat IPC: 1.89186 cumulative IPC: 1.94481 (Simulation time: 0 hr 1 min 24 sec) 
Heartbeat CPU  2 instructions:   13000001 cycles:    5658019 heartbeat IPC: 3.27780 cumulative IPC: 2.29762 (Simulation time: 0 hr 1 min 24 sec) 
Heartbeat CPU  1 instructions:   11000001 cycles:    5718206 heartbeat IPC: 1.87580 cumulative IPC: 1.92368 (Simulation time: 0 hr 1 min 25 sec) 
Heartbeat CPU  0 instructions:   11000002 cycles:    5928860 heartbeat IPC: 1.85249 cumulative IPC: 1.85533 (Simulation time: 0 hr 1 min 29 sec) 
Heartbeat CPU  2 instructions:   14000000 cycles:    5963494 heartbeat IPC: 3.27359 cumulative IPC: 2.34762 (Simulation time: 0 hr 1 min 29 sec) 
Heartbeat CPU  3 instructions:   12000000 cycles:    6144303 heartbeat IPC: 2.04828 cumulative IPC: 1.95303 (Simulation time: 0 hr 1 min 33 sec) 
Heartbeat CPU  1 instructions:   12000000 cycles:    6188420 heartbeat IPC: 2.12669 cumulative IPC: 1.93911 (Simulation time: 0 hr 1 min 33 sec) 
Heartbeat CPU  2 instructions:   15000003 cycles:    6268424 heartbeat IPC: 3.27945 cumulative IPC: 2.39295 (Simulation time: 0 hr 1 min 35 sec) 
Heartbeat CPU  0 instructions:   12000000 cycles:    6425273 heartbeat IPC: 2.01445 cumulative IPC: 1.86762 (Simulation time: 0 hr 1 min 37 sec) 
Heartbeat CPU  2 instructions:   16000000 cycles:    6568506 heartbeat IPC: 3.33241 cumulative IPC: 2.43587 (Simulation time: 0 hr 1 min 40 sec) 
Heartbeat CPU  3 instructions:   13000000 cycles:    6629735 heartbeat IPC: 2.06002 cumulative IPC: 1.96086 (Simulation time: 0 hr 1 min 41 sec) 
Heartbeat CPU  1 instructions:   13000002 cycles:    6667581 heartbeat IPC: 2.08699 cumulative IPC: 1.94973 (Simulation time: 0 hr 1 min 42 sec) 
Heartbeat CPU  2 instructions:   17000000 cycles:    6866650 heartbeat IPC: 3.35408 cumulative IPC: 2.47573 (Simulation time: 0 hr 1 min 45 sec) 
Heartbeat CPU  0 instructions:   13000001 cycles:    6920275 heartbeat IPC: 2.02020 cumulative IPC: 1.87854 (Simulation time: 0 hr 1 min 46 sec) 
Heartbeat CPU  3 instructions:   14000000 cycles:    7094387 heartbeat IPC: 2.15215 cumulative IPC: 1.97339 (Simulation time: 0 hr 1 min 49 sec) 
Heartbeat CPU  1 instructions:   14000000 cycles:    7119844 heartbeat IPC: 2.21110 cumulative IPC: 1.96634 (Simulation time: 0 hr 1 min 50 sec) 
Heartbeat CPU  2 instructions:   18000000 cycles:    7162426 heartbeat IPC: 3.38094 cumulative IPC: 2.51311 (Simulation time: 0 hr 1 min 50 sec) 
Heartbeat CPU  0 instructions:   14000002 cycles:    7396581 heartbeat IPC: 2.09949 cumulative IPC: 1.89277 (Simulation time: 0 hr 1 min 55 sec) 
Heartbeat CPU  2 instructions:   19000002 cycles:    7459326 heartbeat IPC: 3.36814 cumulative IPC: 2.54715 (Simulation time: 0 hr 1 min 56 sec) 
Heartbeat CPU  1 instructions:   15000001 cycles:    7590191 heartbeat IPC: 2.12609 cumulative IPC: 1.97624 (Simulation time: 0 hr 1 min 58 sec) 
Heartbeat CPU  3 instructions:   15000000 cycles:    7609506 heartbeat IPC: 1.94130 cumulative IPC: 1.97122 (Simulation time: 0 hr 1 min 58 sec) 
Heartbeat CPU  2 instructions:   20000000 cycles:    7756158 heartbeat IPC: 3.36890 cumulative IPC: 2.57860 (Simulation time: 0 hr 2 min 1 sec) 
Heartbeat CPU  0 instructions:   15000002 cycles:    7873861 heartbeat IPC: 2.09521 cumulative IPC: 1.90504 (Simulation time: 0 hr 2 min 3 sec) 
Heartbeat CPU  2 instructions:   21000002 cycles:    8053226 heartbeat IPC: 3.36624 cumulative IPC: 2.60765 (Simulation time: 0 hr 2 min 6 sec) 
Heartbeat CPU  1 instructions:   16000000 cycles:    8065353 heartbeat IPC: 2.10454 cumulative IPC: 1.98379 (Simulation time: 0 hr 2 min 7 sec) 
Heartbeat CPU  3 instructions:   16000000 cycles:    8090326 heartbeat IPC: 2.07978 cumulative IPC: 1.97767 (Simulation time: 0 hr 2 min 7 sec) 
Heartbeat CPU  0 instructions:   16000000 cycles:    8339634 heartbeat IPC: 2.14696 cumulative IPC: 1.91855 (Simulation time: 0 hr 2 min 12 sec) 
Heartbeat CPU  2 instructions:   22000000 cycles:    8368282 heartbeat IPC: 3.17403 cumulative IPC: 2.62897 (Simulation time: 0 hr 2 min 12 sec) 
Heartbeat CPU  1 instructions:   17000002 cycles:    8547979 heartbeat IPC: 2.07200 cumulative IPC: 1.98877 (Simulation time: 0 hr 2 min 15 sec) 
Heartbeat CPU  3 instructions:   17000000 cycles:    8568713 heartbeat IPC: 2.09036 cumulative IPC: 1.98396 (Simulation time: 0 hr 2 min 16 sec) 
Heartbeat CPU  2 instructions:   23000000 cycles:    8665447 heartbeat IPC: 3.36513 cumulative IPC: 2.65422 (Simulation time: 0 hr 2 min 17 sec) 
Heartbeat CPU  0 instructions:   17000000 cycles:    8832642 heartbeat IPC: 2.02836 cumulative IPC: 1.92468 (Simulation time: 0 hr 2 min 20 sec) 
Heartbeat CPU  2 instructions:   24000000 cycles:    8966758 heartbeat IPC: 3.31883 cumulative IPC: 2.67655 (Simulation time: 0 hr 2 min 22 sec) 
Heartbeat CPU  1 instructions:   18000000 cycles:    9065957 heartbeat IPC: 1.93058 cumulative IPC: 1.98545 (Simulation time: 0 hr 2 min 24 sec) 
Heartbeat CPU  3 instructions:   18000000 cycles:    9077081 heartbeat IPC: 1.96708 cumulative IPC: 1.98302 (Simulation time: 0 hr 2 min 24 sec) 
Heartbeat CPU  0 instructions:   18000002 cycles:    9282741 heartbeat IPC: 2.22174 cumulative IPC: 1.93908 (Simulation time: 0 hr 2 min 28 sec) 
Heartbeat CPU  2 instructions:   25000000 cycles:    9285756 heartbeat IPC: 3.13482 cumulative IPC: 2.69230 (Simulation time: 0 hr 2 min 28 sec) 
Heartbeat CPU  1 instructions:   19000001 cycles:    9574840 heartbeat IPC: 1.96509 cumulative IPC: 1.98437 (Simulation time: 0 hr 2 min 33 sec) 
Heartbeat CPU  2 instructions:   26000001 cycles:    9579526 heartbeat IPC: 3.40403 cumulative IPC: 2.71412 (Simulation time: 0 hr 2 min 33 sec) 
Heartbeat CPU  3 instructions:   19000003 cycles:    9586361 heartbeat IPC: 1.96356 cumulative IPC: 1.98198 (Simulation time: 0 hr 2 min 33 sec) 
Heartbeat CPU  0 instructions:   19000001 cycles:    9722028 heartbeat IPC: 2.27641 cumulative IPC: 1.95432 (Simulation time: 0 hr 2 min 36 sec) 
Heartbeat CPU  2 instructions:   27000003 cycles:    9875583 heartbeat IPC: 3.37773 cumulative IPC: 2.73402 (Simulation time: 0 hr 2 min 38 sec) 
Heartbeat CPU  1 instructions:   20000000 cycles:   10057934 heartbeat IPC: 2.06999 cumulative IPC: 1.98848 (Simulation time: 0 hr 2 min 42 sec) 
Heartbeat CPU  3 instructions:   20000000 cycles:   10089485 heartbeat IPC: 1.98758 cumulative IPC: 1.98226 (Simulation time: 0 hr 2 min 42 sec) 
Heartbeat CPU  2 instructions:   28000000 cycles:   10173759 heartbeat IPC: 3.35371 cumulative IPC: 2.75218 (Simulation time: 0 hr 2 min 44 sec) 
Heartbeat CPU  0 instructions:   20000000 cycles:   10234837 heartbeat IPC: 1.95004 cumulative IPC: 1.95411 (Simulation time: 0 hr 2 min 45 sec) 
Heartbeat CPU  2 instructions:   29000003 cycles:   10470557 heartbeat IPC: 3.36931 cumulative IPC: 2.76967 (Simulation time: 0 hr 2 min 49 sec) 
Heartbeat CPU  1 instructions:   21000001 cycles:   10555665 heartbeat IPC: 2.00912 cumulative IPC: 1.98945 (Simulation time: 0 hr 2 min 51 sec) 
Heartbeat CPU  3 instructions:   21000001 cycles:   10573937 heartbeat IPC: 2.06419 cumulative IPC: 1.98602 (Simulation time: 0 hr 2 min 51 sec) 
Heartbeat CPU  0 instructions:   21000001 cycles:   10728484 heartbeat IPC: 2.02574 cumulative IPC: 1.95741 (Simulation time: 0 hr 2 min 54 sec) 
Heartbeat CPU  2 instructions:   30000000 cycles:   10763824 heartbeat IPC: 3.40985 cumulative IPC: 2.78711 (Simulation time: 0 hr 2 min 54 sec) 
Heartbeat CPU  1 instructions:   22000000 cycles:   11030830 heartbeat IPC: 2.10453 cumulative IPC: 1.99441 (Simulation time: 0 hr 2 min 59 sec) 
Heartbeat CPU  2 instructions:   31000001 cycles:   11060204 heartbeat IPC: 3.37405 cumulative IPC: 2.80284 (Simulation time: 0 hr 3 min 0 sec) 
Heartbeat CPU  3 instructions:   22000002 cycles:   11065586 heartbeat IPC: 2.03397 cumulative IPC: 1.98815 (Simulation time: 0 hr 3 min 0 sec) 
Heartbeat CPU  0 instructions:   22000000 cycles:   11211427 heartbeat IPC: 2.07064 cumulative IPC: 1.96228 (Simulation time: 0 hr 3 min 2 sec) 
Heartbeat CPU  2 instructions:   32000000 cycles:   11357572 heartbeat IPC: 3.36283 cumulative IPC: 2.81750 (Simulation time: 0 hr 3 min 5 sec) 
Heartbeat CPU  1 instructions:   23000002 cycles:   11495507 heartbeat IPC: 2.15204 cumulative IPC: 2.00078 (Simulation time: 0 hr 3 min 8 sec) 
Heartbeat CPU  3 instructions:   23000002 cycles:   11560926 heartbeat IPC: 2.01882 cumulative IPC: 1.98946 (Simulation time: 0 hr 3 min 9 sec) 
Heartbeat CPU  2 instructions:   33000001 cycles:   11654819 heartbeat IPC: 3.36421 cumulative IPC: 2.83145 (Simulation time: 0 hr 3 min 11 sec) 
Heartbeat CPU  0 instructions:   23000000 cycles:   11670668 heartbeat IPC: 2.17751 cumulative IPC: 1.97075 (Simulation time: 0 hr 3 min 11 sec) 
Heartbeat CPU  2 instructions:   34000002 cycles:   11956558 heartbeat IPC: 3.31413 cumulative IPC: 2.84363 (Simulation time: 0 hr 3 min 16 sec) 
Heartbeat CPU  1 instructions:   24000000 cycles:   11975702 heartbeat IPC: 2.08248 cumulative IPC: 2.00406 (Simulation time: 0 hr 3 min 17 sec) 
Heartbeat CPU  3 instructions:   24000000 cycles:   12018564 heartbeat IPC: 2.18513 cumulative IPC: 1.99691 (Simulation time: 0 hr 3 min 17 sec) 
Heartbeat CPU  0 instructions:   24000000 cycles:   12130415 heartbeat IPC: 2.17511 cumulative IPC: 1.97850 (Simulation time: 0 hr 3 min 20 sec) 
Heartbeat CPU  2 instructions:   35000002 cycles:   12250414 heartbeat IPC: 3.40303 cumulative IPC: 2.85705 (Simulation time: 0 hr 3 min 22 sec) 
Heartbeat CPU  1 instructions:   25000003 cycles:   12450927 heartbeat IPC: 2.10427 cumulative IPC: 2.00788 (Simulation time: 0 hr 3 min 26 sec) 
Heartbeat CPU  3 instructions:   25000000 cycles:   12483106 heartbeat IPC: 2.15266 cumulative IPC: 2.00271 (Simulation time: 0 hr 3 min 26 sec) 
Heartbeat CPU  2 instructions:   36000000 cycles:   12552774 heartbeat IPC: 3.30731 cumulative IPC: 2.86789 (Simulation time: 0 hr 3 min 27 sec) 
Heartbeat CPU  0 instructions:   25000003 cycles:   12603103 heartbeat IPC: 2.11557 cumulative IPC: 1.98364 (Simulation time: 0 hr 3 min 28 sec) 
Heartbeat CPU  1 instructions:   26000000 cycles:   12930617 heartbeat IPC: 2.08467 cumulative IPC: 2.01073 (Simulation time: 0 hr 3 min 34 sec) 
Heartbeat CPU  3 instructions:   26000003 cycles:   12971778 heartbeat IPC: 2.04637 cumulative IPC: 2.00435 (Simulation time: 0 hr 3 min 34 sec) 
Heartbeat CPU  2 instructions:   37000001 cycles:   13055755 heartbeat IPC: 1.98815 cumulative IPC: 2.83400 (Simulation time: 0 hr 3 min 36 sec) 
Heartbeat CPU  0 instructions:   26000000 cycles:   13084734 heartbeat IPC: 2.07627 cumulative IPC: 1.98705 (Simulation time: 0 hr 3 min 36 sec) 
Heartbeat CPU  1 instructions:   27000001 cycles:   13400846 heartbeat IPC: 2.12663 cumulative IPC: 2.01480 (Simulation time: 0 hr 3 min 41 sec) 
Heartbeat CPU  3 instructions:   27000001 cycles:   13472836 heartbeat IPC: 1.99577 cumulative IPC: 2.00403 (Simulation time: 0 hr 3 min 42 sec) 
Heartbeat CPU  0 instructions:   27000003 cycles:   13581089 heartbeat IPC: 2.01469 cumulative IPC: 1.98806 (Simulation time: 0 hr 3 min 44 sec) 
Heartbeat CPU  2 instructions:   38000003 cycles:   13648507 heartbeat IPC: 1.68705 cumulative IPC: 2.78419 (Simulation time: 0 hr 3 min 45 sec) 
Heartbeat CPU  1 instructions:   28000000 cycles:   13889767 heartbeat IPC: 2.04532 cumulative IPC: 2.01587 (Simulation time: 0 hr 3 min 49 sec) 
Heartbeat CPU  3 instructions:   28000000 cycles:   13967383 heartbeat IPC: 2.02205 cumulative IPC: 2.00467 (Simulation time: 0 hr 3 min 50 sec) 
Heartbeat CPU  0 instructions:   28000000 cycles:   14064333 heartbeat IPC: 2.06934 cumulative IPC: 1.99085 (Simulation time: 0 hr 3 min 51 sec) 
Heartbeat CPU  2 instructions:   39000002 cycles:   14178569 heartbeat IPC: 1.88657 cumulative IPC: 2.75063 (Simulation time: 0 hr 3 min 53 sec) 
Heartbeat CPU  1 instructions:   29000000 cycles:   14380727 heartbeat IPC: 2.03683 cumulative IPC: 2.01659 (Simulation time: 0 hr 3 min 57 sec) 
Heartbeat CPU  3 instructions:   29000000 cycles:   14469296 heartbeat IPC: 1.99238 cumulative IPC: 2.00424 (Simulation time: 0 hr 3 min 58 sec) 
Heartbeat CPU  0 instructions:   29000001 cycles:   14532771 heartbeat IPC: 2.13476 cumulative IPC: 1.99549 (Simulation time: 0 hr 3 min 59 sec) 
Heartbeat CPU  2 instructions:   40000000 cycles:   14702287 heartbeat IPC: 1.90942 cumulative IPC: 2.72067 (Simulation time: 0 hr 4 min 2 sec) 
Heartbeat CPU  1 instructions:   30000001 cycles:   14873782 heartbeat IPC: 2.02817 cumulative IPC: 2.01697 (Simulation time: 0 hr 4 min 5 sec) 
Heartbeat CPU  3 instructions:   30000001 cycles:   14938018 heartbeat IPC: 2.13346 cumulative IPC: 2.00830 (Simulation time: 0 hr 4 min 6 sec) 
Heartbeat CPU  0 instructions:   30000001 cycles:   15019990 heartbeat IPC: 2.05247 cumulative IPC: 1.99734 (Simulation time: 0 hr 4 min 7 sec) 
Heartbeat CPU  2 instructions:   41000001 cycles:   15288819 heartbeat IPC: 1.70494 cumulative IPC: 2.68170 (Simulation time: 0 hr 4 min 12 sec) 
Heartbeat CPU  1 instructions:   31000001 cycles:   15336407 heartbeat IPC: 2.16158 cumulative IPC: 2.02133 (Simulation time: 0 hr 4 min 13 sec) 
Heartbeat CPU  3 instructions:   31000001 cycles:   15388412 heartbeat IPC: 2.22028 cumulative IPC: 2.01450 (Simulation time: 0 hr 4 min 13 sec) 
Heartbeat CPU  0 instructions:   31000000 cycles:   15503256 heartbeat IPC: 2.06925 cumulative IPC: 1.99958 (Simulation time: 0 hr 4 min 15 sec) 
Heartbeat CPU  1 instructions:   32000000 cycles:   15822261 heartbeat IPC: 2.05823 cumulative IPC: 2.02247 (Simulation time: 0 hr 4 min 20 sec) 
Heartbeat CPU  3 instructions:   32000000 cycles:   15834158 heartbeat IPC: 2.24343 cumulative IPC: 2.02095 (Simulation time: 0 hr 4 min 21 sec) 
Heartbeat CPU  2 instructions:   42000000 cycles:   15865440 heartbeat IPC: 1.73424 cumulative IPC: 2.64726 (Simulation time: 0 hr 4 min 21 sec) 
Heartbeat CPU  0 instructions:   32000000 cycles:   15979431 heartbeat IPC: 2.10007 cumulative IPC: 2.00257 (Simulation time: 0 hr 4 min 23 sec) 
Heartbeat CPU  3 instructions:   33000003 cycles:   16284377 heartbeat IPC: 2.22115 cumulative IPC: 2.02648 (Simulation time: 0 hr 4 min 28 sec) 
Heartbeat CPU  1 instructions:   33000000 cycles:   16341201 heartbeat IPC: 1.92701 cumulative IPC: 2.01944 (Simulation time: 0 hr 4 min 29 sec) 
Heartbeat CPU  2 instructions:   43000001 cycles:   16444807 heartbeat IPC: 1.72602 cumulative IPC: 2.61481 (Simulation time: 0 hr 4 min 31 sec) 
Heartbeat CPU  0 instructions:   33000000 cycles:   16462006 heartbeat IPC: 2.07222 cumulative IPC: 2.00462 (Simulation time: 0 hr 4 min 31 sec) 
Heartbeat CPU  3 instructions:   34000003 cycles:   16771348 heartbeat IPC: 2.05351 cumulative IPC: 2.02727 (Simulation time: 0 hr 4 min 36 sec) 
Heartbeat CPU  1 instructions:   34000001 cycles:   16808688 heartbeat IPC: 2.13910 cumulative IPC: 2.02276 (Simulation time: 0 hr 4 min 36 sec) 
Heartbeat CPU  0 instructions:   34000003 cycles:   16963699 heartbeat IPC: 1.99326 cumulative IPC: 2.00428 (Simulation time: 0 hr 4 min 39 sec) 
Heartbeat CPU  2 instructions:   44000000 cycles:   17065904 heartbeat IPC: 1.61005 cumulative IPC: 2.57824 (Simulation time: 0 hr 4 min 40 sec) 
Heartbeat CPU  3 instructions:   35000003 cycles:   17248414 heartbeat IPC: 2.09615 cumulative IPC: 2.02917 (Simulation time: 0 hr 4 min 43 sec) 
Heartbeat CPU  1 instructions:   35000000 cycles:   17293622 heartbeat IPC: 2.06213 cumulative IPC: 2.02387 (Simulation time: 0 hr 4 min 44 sec) 
Heartbeat CPU  0 instructions:   35000000 cycles:   17440485 heartbeat IPC: 2.09737 cumulative IPC: 2.00682 (Simulation time: 0 hr 4 min 46 sec) 
Heartbeat CPU  2 instructions:   45000003 cycles:   17649972 heartbeat IPC: 1.71213 cumulative IPC: 2.54958 (Simulation time: 0 hr 4 min 50 sec) 
Heartbeat CPU  3 instructions:   36000000 cycles:   17721401 heartbeat IPC: 2.11422 cumulative IPC: 2.03144 (Simulation time: 0 hr 4 min 51 sec) 
Heartbeat CPU  1 instructions:   36000000 cycles:   17774336 heartbeat IPC: 2.08024 cumulative IPC: 2.02539 (Simulation time: 0 hr 4 min 52 sec) 
Heartbeat CPU  0 instructions:   36000000 cycles:   17903647 heartbeat IPC: 2.15907 cumulative IPC: 2.01076 (Simulation time: 0 hr 4 min 54 sec) 
Heartbeat CPU  3 instructions:   37000001 cycles:   18205036 heartbeat IPC: 2.06768 cumulative IPC: 2.03240 (Simulation time: 0 hr 4 min 59 sec) 
Heartbeat CPU  2 instructions:   46000001 cycles:   18230058 heartbeat IPC: 1.72388 cumulative IPC: 2.52331 (Simulation time: 0 hr 4 min 59 sec) 
Heartbeat CPU  1 instructions:   37000001 cycles:   18263040 heartbeat IPC: 2.04623 cumulative IPC: 2.02595 (Simulation time: 0 hr 5 min 0 sec) 
Heartbeat CPU  0 instructions:   37000003 cycles:   18404880 heartbeat IPC: 1.99509 cumulative IPC: 2.01034 (Simulation time: 0 hr 5 min 2 sec) 
Heartbeat CPU  3 instructions:   38000000 cycles:   18731170 heartbeat IPC: 1.90065 cumulative IPC: 2.02870 (Simulation time: 0 hr 5 min 7 sec) 
Heartbeat CPU  2 instructions:   47000001 cycles:   18796416 heartbeat IPC: 1.76567 cumulative IPC: 2.50048 (Simulation time: 0 hr 5 min 8 sec) 
Heartbeat CPU  1 instructions:   38000000 cycles:   18796815 heartbeat IPC: 1.87345 cumulative IPC: 2.02162 (Simulation time: 0 hr 5 min 8 sec) 
Heartbeat CPU  0 instructions:   38000002 cycles:   18922132 heartbeat IPC: 1.93329 cumulative IPC: 2.00823 (Simulation time: 0 hr 5 min 10 sec) 
Heartbeat CPU  3 instructions:   39000003 cycles:   19271739 heartbeat IPC: 1.84991 cumulative IPC: 2.02369 (Simulation time: 0 hr 5 min 16 sec) 
Heartbeat CPU  1 instructions:   39000003 cycles:   19312890 heartbeat IPC: 1.93771 cumulative IPC: 2.01938 (Simulation time: 0 hr 5 min 16 sec) 
Heartbeat CPU  2 instructions:   48000000 cycles:   19361864 heartbeat IPC: 1.76851 cumulative IPC: 2.47910 (Simulation time: 0 hr 5 min 17 sec) 
Heartbeat CPU  0 instructions:   39000003 cycles:   19446049 heartbeat IPC: 1.90870 cumulative IPC: 2.00555 (Simulation time: 0 hr 5 min 18 sec) 
Heartbeat CPU  1 instructions:   40000000 cycles:   19844031 heartbeat IPC: 1.88273 cumulative IPC: 2.01572 (Simulation time: 0 hr 5 min 24 sec) 
Heartbeat CPU  2 instructions:   49000000 cycles:   19939110 heartbeat IPC: 1.73236 cumulative IPC: 2.45748 (Simulation time: 0 hr 5 min 25 sec) 
Heartbeat CPU  3 instructions:   40000000 cycles:   19944879 heartbeat IPC: 1.48557 cumulative IPC: 2.00553 (Simulation time: 0 hr 5 min 25 sec) 
Heartbeat CPU  0 instructions:   40000000 cycles:   19967439 heartbeat IPC: 1.91794 cumulative IPC: 2.00326 (Simulation time: 0 hr 5 min 25 sec) 
Heartbeat CPU  1 instructions:   41000000 cycles:   20459523 heartbeat IPC: 1.62472 cumulative IPC: 2.00396 (Simulation time: 0 hr 5 min 32 sec) 
Heartbeat CPU  0 instructions:   41000002 cycles:   20489574 heartbeat IPC: 1.91522 cumulative IPC: 2.00102 (Simulation time: 0 hr 5 min 32 sec) 
Heartbeat CPU  2 instructions:   50000003 cycles:   20512817 heartbeat IPC: 1.74306 cumulative IPC: 2.43750 (Simulation time: 0 hr 5 min 33 sec) 
Heartbeat CPU  3 instructions:   41000000 cycles:   20588929 heartbeat IPC: 1.55267 cumulative IPC: 1.99136 (Simulation time: 0 hr 5 min 34 sec) 
Heartbeat CPU  1 instructions:   42000000 cycles:   20985697 heartbeat IPC: 1.90051 cumulative IPC: 2.00136 (Simulation time: 0 hr 5 min 40 sec) 
Heartbeat CPU  0 instructions:   42000001 cycles:   21014298 heartbeat IPC: 1.90576 cumulative IPC: 1.99864 (Simulation time: 0 hr 5 min 40 sec) 
Heartbeat CPU  2 instructions:   51000000 cycles:   21070506 heartbeat IPC: 1.79311 cumulative IPC: 0.04746 (Simulation time: 0 hr 5 min 41 sec) 
Heartbeat CPU  3 instructions:   42000003 cycles:   21194666 heartbeat IPC: 1.65089 cumulative IPC: 1.98163 (Simulation time: 0 hr 5 min 43 sec) 
Heartbeat CPU  1 instructions:   43000000 cycles:   21527158 heartbeat IPC: 1.84686 cumulative IPC: 1.99748 (Simulation time: 0 hr 5 min 47 sec) 
Heartbeat CPU  2 instructions:   52000000 cycles:   21626240 heartbeat IPC: 1.79942 cumulative IPC: 0.09248 (Simulation time: 0 hr 5 min 48 sec) 
Heartbeat CPU  0 instructions:   43000003 cycles:   21669214 heartbeat IPC: 1.52692 cumulative IPC: 1.98438 (Simulation time: 0 hr 5 min 49 sec) 
Heartbeat CPU  3 instructions:   43000001 cycles:   21746108 heartbeat IPC: 1.81342 cumulative IPC: 1.97737 (Simulation time: 0 hr 5 min 50 sec) 
Heartbeat CPU  1 instructions:   44000000 cycles:   22082600 heartbeat IPC: 1.80037 cumulative IPC: 1.99252 (Simulation time: 0 hr 5 min 55 sec) 
Heartbeat CPU  0 instructions:   44000000 cycles:   22191813 heartbeat IPC: 1.91351 cumulative IPC: 1.98271 (Simulation time: 0 hr 5 min 57 sec) 
Heartbeat CPU  2 instructions:   53000001 cycles:   22191898 heartbeat IPC: 1.76785 cumulative IPC: 0.13518 (Simulation time: 0 hr 5 min 57 sec) 
Heartbeat CPU  3 instructions:   44000000 cycles:   22288961 heartbeat IPC: 1.84212 cumulative IPC: 1.97407 (Simulation time: 0 hr 5 min 58 sec) 
Heartbeat CPU  1 instructions:   45000000 cycles:   22639108 heartbeat IPC: 1.79692 cumulative IPC: 1.98771 (Simulation time: 0 hr 6 min 3 sec) 
Heartbeat CPU  2 instructions:   54000000 cycles:   22746548 heartbeat IPC: 1.80294 cumulative IPC: 0.17585 (Simulation time: 0 hr 6 min 5 sec) 
Heartbeat CPU  3 instructions:   45000001 cycles:   22813158 heartbeat IPC: 1.90768 cumulative IPC: 1.97255 (Simulation time: 0 hr 6 min 6 sec) 
Heartbeat CPU  0 instructions:   45000000 cycles:   22872418 heartbeat IPC: 1.46928 cumulative IPC: 1.96744 (Simulation time: 0 hr 6 min 6 sec) 
Heartbeat CPU  1 instructions:   46000002 cycles:   23151246 heartbeat IPC: 1.95260 cumulative IPC: 1.98693 (Simulation time: 0 hr 6 min 11 sec) 
Heartbeat CPU  2 instructions:   55000002 cycles:   23319897 heartbeat IPC: 1.74414 cumulative IPC: 0.21441 (Simulation time: 0 hr 6 min 13 sec) 
Heartbeat CPU  3 instructions:   46000000 cycles:   23328831 heartbeat IPC: 1.93921 cumulative IPC: 1.97181 (Simulation time: 0 hr 6 min 13 sec) 
Heartbeat CPU  0 instructions:   46000000 cycles:   23486028 heartbeat IPC: 1.62970 cumulative IPC: 1.95861 (Simulation time: 0 hr 6 min 16 sec) 
Heartbeat CPU  1 instructions:   47000001 cycles:   23665000 heartbeat IPC: 1.94645 cumulative IPC: 1.98606 (Simulation time: 0 hr 6 min 18 sec) 
Heartbeat CPU  2 instructions:   56000000 cycles:   23854224 heartbeat IPC: 1.87151 cumulative IPC: 0.25153 (Simulation time: 0 hr 6 min 21 sec) 
Heartbeat CPU  3 instructions:   47000002 cycles:   23875084 heartbeat IPC: 1.83066 cumulative IPC: 1.96858 (Simulation time: 0 hr 6 min 21 sec) 
Heartbeat CPU  0 instructions:   47000000 cycles:   23993463 heartbeat IPC: 1.97070 cumulative IPC: 1.95887 (Simulation time: 0 hr 6 min 23 sec) 
Heartbeat CPU  2 instructions:   57000001 cycles:   24166450 heartbeat IPC: 3.20281 cumulative IPC: 0.28966 (Simulation time: 0 hr 6 min 26 sec) 
Heartbeat CPU  1 instructions:   48000000 cycles:   24171306 heartbeat IPC: 1.97509 cumulative IPC: 1.98583 (Simulation time: 0 hr 6 min 26 sec) 
Heartbeat CPU  3 instructions:   48000000 cycles:   24410116 heartbeat IPC: 1.86904 cumulative IPC: 1.96640 (Simulation time: 0 hr 6 min 30 sec) 
Heartbeat CPU  0 instructions:   48000000 cycles:   24518429 heartbeat IPC: 1.90489 cumulative IPC: 1.95771 (Simulation time: 0 hr 6 min 32 sec) 
Heartbeat CPU  2 instructions:   58000001 cycles:   24535335 heartbeat IPC: 2.71087 cumulative IPC: 0.32606 (Simulation time: 0 hr 6 min 32 sec) 
Heartbeat CPU  1 instructions:   49000001 cycles:   24690157 heartbeat IPC: 1.92734 cumulative IPC: 1.98460 (Simulation time: 0 hr 6 min 34 sec) 
Heartbeat CPU  3 instructions:   49000003 cycles:   24950294 heartbeat IPC: 1.85125 cumulative IPC: 1.96390 (Simulation time: 0 hr 6 min 38 sec) 
Heartbeat CPU  0 instructions:   49000003 cycles:   25033007 heartbeat IPC: 1.94335 cumulative IPC: 1.95742 (Simulation time: 0 hr 6 min 39 sec) 
Heartbeat CPU  2 instructions:   59000002 cycles:   25112068 heartbeat IPC: 1.73391 cumulative IPC: 0.35839 (Simulation time: 0 hr 6 min 40 sec) 
Heartbeat CPU  1 instructions:   50000000 cycles:   25229506 heartbeat IPC: 1.85409 cumulative IPC: 1.98181 (Simulation time: 0 hr 6 min 42 sec) 
Heartbeat CPU  3 instructions:   50000000 cycles:   25494520 heartbeat IPC: 1.83747 cumulative IPC: 1.96121 (Simulation time: 0 hr 6 min 46 sec) 
Heartbeat CPU  0 instructions:   50000003 cycles:   25572748 heartbeat IPC: 1.85274 cumulative IPC: 1.95521 (Simulation time: 0 hr 6 min 47 sec) 

Warmup complete CPU  0 instructions:   50000003 cycles:   25572748 (Simulation time: 0 hr 6 min 47 sec) 
Warmup complete CPU  1 instructions:   50607516 cycles:   25572747 (Simulation time: 0 hr 6 min 47 sec) 
Warmup complete CPU  2 instructions:   59839419 cycles:   25572747 (Simulation time: 0 hr 6 min 47 sec) 
Warmup complete CPU  3 instructions:   50162461 cycles:   25572747 (Simulation time: 0 hr 6 min 47 sec) 

Heartbeat CPU  2 instructions:   60000000 cycles:   26536783 heartbeat IPC: 0.70189 cumulative IPC: 0.16657 (Simulation time: 0 hr 6 min 49 sec) 
Heartbeat CPU  1 instructions:   51000000 cycles:   27371541 heartbeat IPC: 0.46685 cumulative IPC: 0.21819 (Simulation time: 0 hr 6 min 51 sec) 
Heartbeat CPU  3 instructions:   51000000 cycles:   29535389 heartbeat IPC: 0.24747 cumulative IPC: 0.21136 (Simulation time: 0 hr 6 min 56 sec) 
Heartbeat CPU  0 instructions:   51000001 cycles:   30301431 heartbeat IPC: 0.21147 cumulative IPC: 0.21147 (Simulation time: 0 hr 6 min 57 sec) 
Heartbeat CPU  1 instructions:   52000000 cycles:   32126320 heartbeat IPC: 0.21031 cumulative IPC: 0.21248 (Simulation time: 0 hr 7 min 1 sec) 
Heartbeat CPU  2 instructions:   61000000 cycles:   32298621 heartbeat IPC: 0.17356 cumulative IPC: 0.17255 (Simulation time: 0 hr 7 min 2 sec) 
Heartbeat CPU  3 instructions:   52000000 cycles:   34345133 heartbeat IPC: 0.20791 cumulative IPC: 0.20947 (Simulation time: 0 hr 7 min 6 sec) 
Heartbeat CPU  0 instructions:   52000000 cycles:   34971033 heartbeat IPC: 0.21415 cumulative IPC: 0.21280 (Simulation time: 0 hr 7 min 8 sec) 
Heartbeat CPU  2 instructions:   62000002 cycles:   35516946 heartbeat IPC: 0.31072 cumulative IPC: 0.21727 (Simulation time: 0 hr 7 min 9 sec) 
Heartbeat CPU  1 instructions:   53000002 cycles:   36839344 heartbeat IPC: 0.21218 cumulative IPC: 0.21235 (Simulation time: 0 hr 7 min 13 sec) 
Heartbeat CPU  2 instructions:   63000003 cycles:   36921515 heartbeat IPC: 0.71196 cumulative IPC: 0.27850 (Simulation time: 0 hr 7 min 13 sec) 
Heartbeat CPU  2 instructions:   64000000 cycles:   38310899 heartbeat IPC: 0.71974 cumulative IPC: 0.32662 (Simulation time: 0 hr 7 min 17 sec) 
Heartbeat CPU  3 instructions:   53000003 cycles:   39103430 heartbeat IPC: 0.21016 cumulative IPC: 0.20971 (Simulation time: 0 hr 7 min 19 sec) 
Heartbeat CPU  0 instructions:   53000001 cycles:   39709687 heartbeat IPC: 0.21103 cumulative IPC: 0.21221 (Simulation time: 0 hr 7 min 21 sec) 
Heartbeat CPU  2 instructions:   65000003 cycles:   39876149 heartbeat IPC: 0.63888 cumulative IPC: 0.36079 (Simulation time: 0 hr 7 min 21 sec) 
Heartbeat CPU  2 instructions:   66000001 cycles:   41103368 heartbeat IPC: 0.81485 cumulative IPC: 0.39667 (Simulation time: 0 hr 7 min 25 sec) 
Heartbeat CPU  1 instructions:   54000002 cycles:   41542978 heartbeat IPC: 0.21260 cumulative IPC: 0.21243 (Simulation time: 0 hr 7 min 27 sec) 
Heartbeat CPU  2 instructions:   67000002 cycles:   42104000 heartbeat IPC: 0.99937 cumulative IPC: 0.43315 (Simulation time: 0 hr 7 min 28 sec) 
Heartbeat CPU  2 instructions:   68000000 cycles:   43050266 heartbeat IPC: 1.05678 cumulative IPC: 0.46692 (Simulation time: 0 hr 7 min 31 sec) 
Heartbeat CPU  3 instructions:   54000000 cycles:   43816879 heartbeat IPC: 0.21216 cumulative IPC: 0.21034 (Simulation time: 0 hr 7 min 34 sec) 
Heartbeat CPU  2 instructions:   69000000 cycles:   44349079 heartbeat IPC: 0.76993 cumulative IPC: 0.48788 (Simulation time: 0 hr 7 min 35 sec) 
Heartbeat CPU  0 instructions:   54000001 cycles:   44386700 heartbeat IPC: 0.21381 cumulative IPC: 0.21261 (Simulation time: 0 hr 7 min 35 sec) 
Heartbeat CPU  2 instructions:   70000001 cycles:   45931527 heartbeat IPC: 0.63193 cumulative IPC: 0.49908 (Simulation time: 0 hr 7 min 40 sec) 
Heartbeat CPU  1 instructions:   55000002 cycles:   46271233 heartbeat IPC: 0.21149 cumulative IPC: 0.21221 (Simulation time: 0 hr 7 min 41 sec) 
Heartbeat CPU  2 instructions:   71000002 cycles:   47751465 heartbeat IPC: 0.54947 cumulative IPC: 0.50321 (Simulation time: 0 hr 7 min 45 sec) 
Heartbeat CPU  3 instructions:   55000001 cycles:   48564923 heartbeat IPC: 0.21061 cumulative IPC: 0.21040 (Simulation time: 0 hr 7 min 47 sec) 
Heartbeat CPU  0 instructions:   55000000 cycles:   49032987 heartbeat IPC: 0.21523 cumulative IPC: 0.21313 (Simulation time: 0 hr 7 min 48 sec) 
Heartbeat CPU  2 instructions:   72000000 cycles:   49547637 heartbeat IPC: 0.55674 cumulative IPC: 0.50722 (Simulation time: 0 hr 7 min 49 sec) 
Heartbeat CPU  1 instructions:   56000000 cycles:   51060780 heartbeat IPC: 0.20879 cumulative IPC: 0.21157 (Simulation time: 0 hr 7 min 53 sec) 
Heartbeat CPU  2 instructions:   73000002 cycles:   51384575 heartbeat IPC: 0.54439 cumulative IPC: 0.50987 (Simulation time: 0 hr 7 min 54 sec) 
Heartbeat CPU  2 instructions:   74000000 cycles:   52909353 heartbeat IPC: 0.65583 cumulative IPC: 0.51801 (Simulation time: 0 hr 7 min 58 sec) 
Heartbeat CPU  3 instructions:   56000000 cycles:   53220184 heartbeat IPC: 0.21481 cumulative IPC: 0.21114 (Simulation time: 0 hr 7 min 59 sec) 
Heartbeat CPU  0 instructions:   56000000 cycles:   53724685 heartbeat IPC: 0.21314 cumulative IPC: 0.21313 (Simulation time: 0 hr 8 min 0 sec) 
Heartbeat CPU  2 instructions:   75000001 cycles:   54770270 heartbeat IPC: 0.53737 cumulative IPC: 0.51924 (Simulation time: 0 hr 8 min 3 sec) 
Heartbeat CPU  1 instructions:   57000001 cycles:   55759632 heartbeat IPC: 0.21282 cumulative IPC: 0.21176 (Simulation time: 0 hr 8 min 5 sec) 
Heartbeat CPU  3 instructions:   57000000 cycles:   57724920 heartbeat IPC: 0.22199 cumulative IPC: 0.21266 (Simulation time: 0 hr 8 min 9 sec) 
Heartbeat CPU  0 instructions:   57000001 cycles:   58389483 heartbeat IPC: 0.21437 cumulative IPC: 0.21331 (Simulation time: 0 hr 8 min 11 sec) 
Heartbeat CPU  1 instructions:   58000001 cycles:   60425142 heartbeat IPC: 0.21434 cumulative IPC: 0.21211 (Simulation time: 0 hr 8 min 15 sec) 
Heartbeat CPU  2 instructions:   76000000 cycles:   60749277 heartbeat IPC: 0.16725 cumulative IPC: 0.45941 (Simulation time: 0 hr 8 min 16 sec) 
Heartbeat CPU  3 instructions:   58000001 cycles:   62377540 heartbeat IPC: 0.21493 cumulative IPC: 0.21295 (Simulation time: 0 hr 8 min 19 sec) 
Heartbeat CPU  0 instructions:   58000003 cycles:   62991694 heartbeat IPC: 0.21729 cumulative IPC: 0.21380 (Simulation time: 0 hr 8 min 21 sec) 
Heartbeat CPU  1 instructions:   59000002 cycles:   65007164 heartbeat IPC: 0.21824 cumulative IPC: 0.21282 (Simulation time: 0 hr 8 min 25 sec) 
Heartbeat CPU  2 instructions:   77000001 cycles:   66657140 heartbeat IPC: 0.16927 cumulative IPC: 0.41769 (Simulation time: 0 hr 8 min 29 sec) 
Heartbeat CPU  3 instructions:   59000003 cycles:   67124651 heartbeat IPC: 0.21065 cumulative IPC: 0.21269 (Simulation time: 0 hr 8 min 30 sec) 
Heartbeat CPU  0 instructions:   59000002 cycles:   67661643 heartbeat IPC: 0.21413 cumulative IPC: 0.21383 (Simulation time: 0 hr 8 min 31 sec) 
Heartbeat CPU  1 instructions:   60000000 cycles:   69816708 heartbeat IPC: 0.20792 cumulative IPC: 0.21229 (Simulation time: 0 hr 8 min 35 sec) 
Heartbeat CPU  3 instructions:   60000000 cycles:   71854634 heartbeat IPC: 0.21142 cumulative IPC: 0.21256 (Simulation time: 0 hr 8 min 40 sec) 
Heartbeat CPU  0 instructions:   60000000 cycles:   72314783 heartbeat IPC: 0.21491 cumulative IPC: 0.21394 (Simulation time: 0 hr 8 min 41 sec) 
Heartbeat CPU  2 instructions:   78000003 cycles:   72459704 heartbeat IPC: 0.17234 cumulative IPC: 0.38733 (Simulation time: 0 hr 8 min 41 sec) 
Heartbeat CPU  1 instructions:   61000003 cycles:   74511098 heartbeat IPC: 0.21302 cumulative IPC: 0.21236 (Simulation time: 0 hr 8 min 45 sec) 
Heartbeat CPU  3 instructions:   61000003 cycles:   76640861 heartbeat IPC: 0.20893 cumulative IPC: 0.21222 (Simulation time: 0 hr 8 min 50 sec) 
Heartbeat CPU  0 instructions:   61000001 cycles:   77066299 heartbeat IPC: 0.21046 cumulative IPC: 0.21362 (Simulation time: 0 hr 8 min 51 sec) 
Heartbeat CPU  2 instructions:   79000000 cycles:   78377977 heartbeat IPC: 0.16897 cumulative IPC: 0.36285 (Simulation time: 0 hr 8 min 53 sec) 
Heartbeat CPU  1 instructions:   62000002 cycles:   79190304 heartbeat IPC: 0.21371 cumulative IPC: 0.21248 (Simulation time: 0 hr 8 min 55 sec) 
Heartbeat CPU  3 instructions:   62000002 cycles:   81321652 heartbeat IPC: 0.21364 cumulative IPC: 0.21234 (Simulation time: 0 hr 9 min 0 sec) 
Heartbeat CPU  0 instructions:   62000001 cycles:   81684227 heartbeat IPC: 0.21655 cumulative IPC: 0.21386 (Simulation time: 0 hr 9 min 0 sec) 
Heartbeat CPU  0 instructions:   63000001 cycles:   82515367 heartbeat IPC: 1.20317 cumulative IPC: 0.22830 (Simulation time: 0 hr 9 min 3 sec) 
Heartbeat CPU  0 instructions:   64000000 cycles:   83072334 heartbeat IPC: 1.79544 cumulative IPC: 0.24348 (Simulation time: 0 hr 9 min 5 sec) 
Heartbeat CPU  0 instructions:   65000000 cycles:   83710659 heartbeat IPC: 1.56660 cumulative IPC: 0.25801 (Simulation time: 0 hr 9 min 8 sec) 
Heartbeat CPU  1 instructions:   63000003 cycles:   83877889 heartbeat IPC: 0.21333 cumulative IPC: 0.21255 (Simulation time: 0 hr 9 min 9 sec) 
Heartbeat CPU  2 instructions:   80000000 cycles:   84246147 heartbeat IPC: 0.17041 cumulative IPC: 0.34361 (Simulation time: 0 hr 9 min 10 sec) 
Heartbeat CPU  0 instructions:   66000003 cycles:   84301596 heartbeat IPC: 1.69223 cumulative IPC: 0.27244 (Simulation time: 0 hr 9 min 10 sec) 
Heartbeat CPU  0 instructions:   67000001 cycles:   84845713 heartbeat IPC: 1.83784 cumulative IPC: 0.28681 (Simulation time: 0 hr 9 min 13 sec) 
Heartbeat CPU  0 instructions:   68000000 cycles:   85388009 heartbeat IPC: 1.84401 cumulative IPC: 0.30093 (Simulation time: 0 hr 9 min 15 sec) 
Heartbeat CPU  3 instructions:   63000001 cycles:   86014804 heartbeat IPC: 0.21308 cumulative IPC: 0.21239 (Simulation time: 0 hr 9 min 16 sec) 
Heartbeat CPU  1 instructions:   64000000 cycles:   88516944 heartbeat IPC: 0.21556 cumulative IPC: 0.21277 (Simulation time: 0 hr 9 min 22 sec) 
Heartbeat CPU  0 instructions:   69000003 cycles:   89413836 heartbeat IPC: 0.24840 cumulative IPC: 0.29761 (Simulation time: 0 hr 9 min 24 sec) 
Heartbeat CPU  2 instructions:   81000000 cycles:   90221173 heartbeat IPC: 0.16736 cumulative IPC: 0.32732 (Simulation time: 0 hr 9 min 25 sec) 
Heartbeat CPU  3 instructions:   64000000 cycles:   90610615 heartbeat IPC: 0.21759 cumulative IPC: 0.21276 (Simulation time: 0 hr 9 min 26 sec) 
Heartbeat CPU  1 instructions:   65000000 cycles:   93167000 heartbeat IPC: 0.21505 cumulative IPC: 0.21292 (Simulation time: 0 hr 9 min 31 sec) 
Heartbeat CPU  0 instructions:   70000001 cycles:   94066314 heartbeat IPC: 0.21494 cumulative IPC: 0.29200 (Simulation time: 0 hr 9 min 33 sec) 
Heartbeat CPU  3 instructions:   65000003 cycles:   95315530 heartbeat IPC: 0.21254 cumulative IPC: 0.21275 (Simulation time: 0 hr 9 min 36 sec) 
Heartbeat CPU  1 instructions:   66000002 cycles:   95994690 heartbeat IPC: 0.35365 cumulative IPC: 0.21858 (Simulation time: 0 hr 9 min 38 sec) 
Heartbeat CPU  2 instructions:   82000000 cycles:   96111886 heartbeat IPC: 0.16976 cumulative IPC: 0.31416 (Simulation time: 0 hr 9 min 38 sec) 
Heartbeat CPU  1 instructions:   67000003 cycles:   96554944 heartbeat IPC: 1.78491 cumulative IPC: 0.23094 (Simulation time: 0 hr 9 min 40 sec) 
Heartbeat CPU  1 instructions:   68000000 cycles:   97104895 heartbeat IPC: 1.81834 cumulative IPC: 0.24314 (Simulation time: 0 hr 9 min 43 sec) 
Heartbeat CPU  1 instructions:   69000003 cycles:   97639751 heartbeat IPC: 1.86967 cumulative IPC: 0.25521 (Simulation time: 0 hr 9 min 45 sec) 
Heartbeat CPU  0 instructions:   71000000 cycles:   98618044 heartbeat IPC: 0.21970 cumulative IPC: 0.28749 (Simulation time: 0 hr 9 min 48 sec) 
Heartbeat CPU  3 instructions:   66000002 cycles:   99851148 heartbeat IPC: 0.22048 cumulative IPC: 0.21322 (Simulation time: 0 hr 9 min 50 sec) 
Heartbeat CPU  1 instructions:   70000001 cycles:  100024186 heartbeat IPC: 0.41939 cumulative IPC: 0.26047 (Simulation time: 0 hr 9 min 51 sec) 
Heartbeat CPU  2 instructions:   83000002 cycles:  102060032 heartbeat IPC: 0.16812 cumulative IPC: 0.30280 (Simulation time: 0 hr 9 min 55 sec) 
Heartbeat CPU  0 instructions:   72000000 cycles:  103169352 heartbeat IPC: 0.21972 cumulative IPC: 0.28352 (Simulation time: 0 hr 9 min 57 sec) 
Heartbeat CPU  3 instructions:   67000003 cycles:  104500301 heartbeat IPC: 0.21509 cumulative IPC: 0.21333 (Simulation time: 0 hr 10 min 0 sec) 
Heartbeat CPU  1 instructions:   71000000 cycles:  104669354 heartbeat IPC: 0.21528 cumulative IPC: 0.25782 (Simulation time: 0 hr 10 min 1 sec) 
Heartbeat CPU  2 instructions:   84000000 cycles:  106618497 heartbeat IPC: 0.21937 cumulative IPC: 0.29811 (Simulation time: 0 hr 10 min 5 sec) 
Heartbeat CPU  0 instructions:   73000001 cycles:  107822263 heartbeat IPC: 0.21492 cumulative IPC: 0.27964 (Simulation time: 0 hr 10 min 7 sec) 
Heartbeat CPU  3 instructions:   68000000 cycles:  109029731 heartbeat IPC: 0.22078 cumulative IPC: 0.21373 (Simulation time: 0 hr 10 min 10 sec) 
Heartbeat CPU  1 instructions:   72000000 cycles:  109285411 heartbeat IPC: 0.21664 cumulative IPC: 0.25555 (Simulation time: 0 hr 10 min 10 sec) 
Heartbeat CPU  0 instructions:   74000003 cycles:  110216286 heartbeat IPC: 0.41771 cumulative IPC: 0.28354 (Simulation time: 0 hr 10 min 13 sec) 
Heartbeat CPU  2 instructions:   85000000 cycles:  111198505 heartbeat IPC: 0.21834 cumulative IPC: 0.29384 (Simulation time: 0 hr 10 min 16 sec) 
Heartbeat CPU  0 instructions:   75000000 cycles:  113672306 heartbeat IPC: 0.28935 cumulative IPC: 0.28377 (Simulation time: 0 hr 10 min 21 sec) 
Heartbeat CPU  3 instructions:   69000001 cycles:  113727079 heartbeat IPC: 0.21289 cumulative IPC: 0.21369 (Simulation time: 0 hr 10 min 21 sec) 
Heartbeat CPU  1 instructions:   73000002 cycles:  113945424 heartbeat IPC: 0.21459 cumulative IPC: 0.25339 (Simulation time: 0 hr 10 min 22 sec) 
Heartbeat CPU  2 instructions:   86000001 cycles:  116986500 heartbeat IPC: 0.17277 cumulative IPC: 0.28618 (Simulation time: 0 hr 10 min 28 sec) 
Heartbeat CPU  3 instructions:   70000003 cycles:  118424326 heartbeat IPC: 0.21289 cumulative IPC: 0.21365 (Simulation time: 0 hr 10 min 31 sec) 
Heartbeat CPU  0 instructions:   76000000 cycles:  118467818 heartbeat IPC: 0.20853 cumulative IPC: 0.27989 (Simulation time: 0 hr 10 min 31 sec) 
Heartbeat CPU  1 instructions:   74000000 cycles:  118468164 heartbeat IPC: 0.22110 cumulative IPC: 0.25182 (Simulation time: 0 hr 10 min 31 sec) 
Heartbeat CPU  2 instructions:   87000002 cycles:  122956161 heartbeat IPC: 0.16751 cumulative IPC: 0.27890 (Simulation time: 0 hr 10 min 41 sec) 
Heartbeat CPU  3 instructions:   71000000 cycles:  123050623 heartbeat IPC: 0.21615 cumulative IPC: 0.21377 (Simulation time: 0 hr 10 min 41 sec) 
Heartbeat CPU  1 instructions:   75000000 cycles:  123105673 heartbeat IPC: 0.21563 cumulative IPC: 0.25009 (Simulation time: 0 hr 10 min 41 sec) 
Heartbeat CPU  0 instructions:   77000000 cycles:  123186327 heartbeat IPC: 0.21193 cumulative IPC: 0.27660 (Simulation time: 0 hr 10 min 41 sec) 
Heartbeat CPU  3 instructions:   72000000 cycles:  127700846 heartbeat IPC: 0.21504 cumulative IPC: 0.21382 (Simulation time: 0 hr 10 min 51 sec) 
Heartbeat CPU  1 instructions:   76000000 cycles:  127721755 heartbeat IPC: 0.21663 cumulative IPC: 0.24858 (Simulation time: 0 hr 10 min 51 sec) 
Heartbeat CPU  2 instructions:   88000000 cycles:  127743850 heartbeat IPC: 0.20887 cumulative IPC: 0.27562 (Simulation time: 0 hr 10 min 51 sec) 
Heartbeat CPU  0 instructions:   78000002 cycles:  127902568 heartbeat IPC: 0.21203 cumulative IPC: 0.27363 (Simulation time: 0 hr 10 min 52 sec) 
Heartbeat CPU  1 instructions:   77000001 cycles:  132334260 heartbeat IPC: 0.21680 cumulative IPC: 0.24721 (Simulation time: 0 hr 11 min 1 sec) 
Heartbeat CPU  3 instructions:   73000003 cycles:  132419257 heartbeat IPC: 0.21194 cumulative IPC: 0.21374 (Simulation time: 0 hr 11 min 1 sec) 
Heartbeat CPU  0 instructions:   79000003 cycles:  132518391 heartbeat IPC: 0.21665 cumulative IPC: 0.27117 (Simulation time: 0 hr 11 min 1 sec) 
Heartbeat CPU  2 instructions:   89000000 cycles:  133064700 heartbeat IPC: 0.18794 cumulative IPC: 0.27128 (Simulation time: 0 hr 11 min 3 sec) 
Heartbeat CPU  3 instructions:   74000000 cycles:  136995108 heartbeat IPC: 0.21854 cumulative IPC: 0.21394 (Simulation time: 0 hr 11 min 11 sec) 
Heartbeat CPU  1 instructions:   78000003 cycles:  137168370 heartbeat IPC: 0.20686 cumulative IPC: 0.24546 (Simulation time: 0 hr 11 min 11 sec) 
Heartbeat CPU  0 instructions:   80000000 cycles:  137290515 heartbeat IPC: 0.20955 cumulative IPC: 0.26853 (Simulation time: 0 hr 11 min 12 sec) 
Heartbeat CPU  2 instructions:   90000001 cycles:  138783957 heartbeat IPC: 0.17485 cumulative IPC: 0.26641 (Simulation time: 0 hr 11 min 15 sec) 
Heartbeat CPU  3 instructions:   75000000 cycles:  141647624 heartbeat IPC: 0.21494 cumulative IPC: 0.21398 (Simulation time: 0 hr 11 min 21 sec) 
Heartbeat CPU  1 instructions:   79000003 cycles:  141941215 heartbeat IPC: 0.20952 cumulative IPC: 0.24399 (Simulation time: 0 hr 11 min 21 sec) 
Heartbeat CPU  0 instructions:   81000003 cycles:  142048906 heartbeat IPC: 0.21016 cumulative IPC: 0.26615 (Simulation time: 0 hr 11 min 22 sec) 
Heartbeat CPU  2 instructions:   91000003 cycles:  144558791 heartbeat IPC: 0.17317 cumulative IPC: 0.26188 (Simulation time: 0 hr 11 min 27 sec) 
Heartbeat CPU  3 instructions:   76000000 cycles:  146439530 heartbeat IPC: 0.20869 cumulative IPC: 0.21377 (Simulation time: 0 hr 11 min 31 sec) 
Heartbeat CPU  1 instructions:   80000000 cycles:  146596205 heartbeat IPC: 0.21482 cumulative IPC: 0.24287 (Simulation time: 0 hr 11 min 31 sec) 
Heartbeat CPU  0 instructions:   82000001 cycles:  146679160 heartbeat IPC: 0.21597 cumulative IPC: 0.26423 (Simulation time: 0 hr 11 min 31 sec) 
Heartbeat CPU  2 instructions:   92000000 cycles:  150432126 heartbeat IPC: 0.17026 cumulative IPC: 0.25757 (Simulation time: 0 hr 11 min 39 sec) 
Heartbeat CPU  3 instructions:   77000000 cycles:  151184297 heartbeat IPC: 0.21076 cumulative IPC: 0.21366 (Simulation time: 0 hr 11 min 41 sec) 
Heartbeat CPU  1 instructions:   81000003 cycles:  151348794 heartbeat IPC: 0.21041 cumulative IPC: 0.24164 (Simulation time: 0 hr 11 min 41 sec) 
Heartbeat CPU  0 instructions:   83000000 cycles:  151370883 heartbeat IPC: 0.21314 cumulative IPC: 0.26233 (Simulation time: 0 hr 11 min 41 sec) 
Heartbeat CPU  3 instructions:   78000000 cycles:  155875736 heartbeat IPC: 0.21315 cumulative IPC: 0.21364 (Simulation time: 0 hr 11 min 51 sec) 
Heartbeat CPU  0 instructions:   84000000 cycles:  156066830 heartbeat IPC: 0.21295 cumulative IPC: 0.26055 (Simulation time: 0 hr 11 min 51 sec) 
Heartbeat CPU  1 instructions:   82000000 cycles:  156084856 heartbeat IPC: 0.21115 cumulative IPC: 0.24053 (Simulation time: 0 hr 11 min 51 sec) 
Heartbeat CPU  2 instructions:   93000002 cycles:  156257941 heartbeat IPC: 0.17165 cumulative IPC: 0.25374 (Simulation time: 0 hr 11 min 52 sec) 
Heartbeat CPU  3 instructions:   79000000 cycles:  160641120 heartbeat IPC: 0.20985 cumulative IPC: 0.21350 (Simulation time: 0 hr 12 min 1 sec) 
Heartbeat CPU  1 instructions:   83000001 cycles:  160730265 heartbeat IPC: 0.21527 cumulative IPC: 0.23966 (Simulation time: 0 hr 12 min 1 sec) 
Heartbeat CPU  0 instructions:   85000000 cycles:  160924732 heartbeat IPC: 0.20585 cumulative IPC: 0.25859 (Simulation time: 0 hr 12 min 1 sec) 
Heartbeat CPU  2 instructions:   94000002 cycles:  162039124 heartbeat IPC: 0.17297 cumulative IPC: 0.25032 (Simulation time: 0 hr 12 min 4 sec) 
Heartbeat CPU  3 instructions:   80000000 cycles:  165364167 heartbeat IPC: 0.21173 cumulative IPC: 0.21344 (Simulation time: 0 hr 12 min 11 sec) 
Heartbeat CPU  0 instructions:   86000003 cycles:  165529858 heartbeat IPC: 0.21715 cumulative IPC: 0.25722 (Simulation time: 0 hr 12 min 11 sec) 
Heartbeat CPU  1 instructions:   84000000 cycles:  165610613 heartbeat IPC: 0.20490 cumulative IPC: 0.23845 (Simulation time: 0 hr 12 min 11 sec) 
Heartbeat CPU  2 instructions:   95000001 cycles:  167847972 heartbeat IPC: 0.17215 cumulative IPC: 0.24713 (Simulation time: 0 hr 12 min 16 sec) 
Heartbeat CPU  3 instructions:   81000003 cycles:  170125413 heartbeat IPC: 0.21003 cumulative IPC: 0.21333 (Simulation time: 0 hr 12 min 21 sec) 
Heartbeat CPU  1 instructions:   85000002 cycles:  170360466 heartbeat IPC: 0.21053 cumulative IPC: 0.23754 (Simulation time: 0 hr 12 min 21 sec) 
Heartbeat CPU  0 instructions:   87000003 cycles:  170368788 heartbeat IPC: 0.20666 cumulative IPC: 0.25553 (Simulation time: 0 hr 12 min 21 sec) 
Heartbeat CPU  2 instructions:   96000000 cycles:  173602240 heartbeat IPC: 0.17378 cumulative IPC: 0.24428 (Simulation time: 0 hr 12 min 28 sec) 
Heartbeat CPU  3 instructions:   82000002 cycles:  174838235 heartbeat IPC: 0.21219 cumulative IPC: 0.21329 (Simulation time: 0 hr 12 min 31 sec) 
Heartbeat CPU  1 instructions:   86000003 cycles:  175148331 heartbeat IPC: 0.20886 cumulative IPC: 0.23662 (Simulation time: 0 hr 12 min 31 sec) 
Heartbeat CPU  0 instructions:   88000000 cycles:  175158841 heartbeat IPC: 0.20877 cumulative IPC: 0.25403 (Simulation time: 0 hr 12 min 31 sec) 
Heartbeat CPU  2 instructions:   97000000 cycles:  179327144 heartbeat IPC: 0.17468 cumulative IPC: 0.24169 (Simulation time: 0 hr 12 min 40 sec) 
Heartbeat CPU  3 instructions:   83000000 cycles:  179505244 heartbeat IPC: 0.21427 cumulative IPC: 0.21332 (Simulation time: 0 hr 12 min 41 sec) 
Heartbeat CPU  0 instructions:   89000001 cycles:  179766206 heartbeat IPC: 0.21704 cumulative IPC: 0.25293 (Simulation time: 0 hr 12 min 41 sec) 
Heartbeat CPU  1 instructions:   87000002 cycles:  179896249 heartbeat IPC: 0.21062 cumulative IPC: 0.23582 (Simulation time: 0 hr 12 min 42 sec) 
Heartbeat CPU  3 instructions:   84000000 cycles:  184124987 heartbeat IPC: 0.21646 cumulative IPC: 0.21342 (Simulation time: 0 hr 12 min 51 sec) 
Heartbeat CPU  0 instructions:   90000000 cycles:  184467354 heartbeat IPC: 0.21271 cumulative IPC: 0.25174 (Simulation time: 0 hr 12 min 51 sec) 
Heartbeat CPU  1 instructions:   88000000 cycles:  184489019 heartbeat IPC: 0.21773 cumulative IPC: 0.23530 (Simulation time: 0 hr 12 min 51 sec) 
Heartbeat CPU  2 instructions:   98000003 cycles:  184831498 heartbeat IPC: 0.18167 cumulative IPC: 0.23961 (Simulation time: 0 hr 12 min 52 sec) 
Heartbeat CPU  3 instructions:   85000002 cycles:  188952436 heartbeat IPC: 0.20715 cumulative IPC: 0.21323 (Simulation time: 0 hr 13 min 1 sec) 
Heartbeat CPU  1 instructions:   89000000 cycles:  189067584 heartbeat IPC: 0.21841 cumulative IPC: 0.23482 (Simulation time: 0 hr 13 min 1 sec) 
Heartbeat CPU  0 instructions:   91000002 cycles:  189142044 heartbeat IPC: 0.21392 cumulative IPC: 0.25066 (Simulation time: 0 hr 13 min 1 sec) 
Heartbeat CPU  2 instructions:   99000000 cycles:  190600075 heartbeat IPC: 0.17335 cumulative IPC: 0.23730 (Simulation time: 0 hr 13 min 5 sec) 
Heartbeat CPU  3 instructions:   86000003 cycles:  193609136 heartbeat IPC: 0.21474 cumulative IPC: 0.21327 (Simulation time: 0 hr 13 min 11 sec) 
Heartbeat CPU  1 instructions:   90000000 cycles:  193735522 heartbeat IPC: 0.21423 cumulative IPC: 0.23425 (Simulation time: 0 hr 13 min 11 sec) 
Heartbeat CPU  0 instructions:   92000000 cycles:  193925290 heartbeat IPC: 0.20906 cumulative IPC: 0.24948 (Simulation time: 0 hr 13 min 12 sec) 
*** Reached end of trace for Core: 2 Repeating trace: /data3/STREAMING/traces/streaming_phase1_core2.trace.xz
Heartbeat CPU  2 instructions:  100000000 cycles:  196159764 heartbeat IPC: 0.17987 cumulative IPC: 0.23543 (Simulation time: 0 hr 13 min 16 sec) 
Heartbeat CPU  2 instructions:  101000001 cycles:  197978838 heartbeat IPC: 0.54973 cumulative IPC: 0.23874 (Simulation time: 0 hr 13 min 21 sec) 
Heartbeat CPU  3 instructions:   87000000 cycles:  198342007 heartbeat IPC: 0.21129 cumulative IPC: 0.21322 (Simulation time: 0 hr 13 min 22 sec) 
Heartbeat CPU  1 instructions:   91000000 cycles:  198430981 heartbeat IPC: 0.21297 cumulative IPC: 0.23367 (Simulation time: 0 hr 13 min 22 sec) 
Heartbeat CPU  0 instructions:   93000000 cycles:  198672416 heartbeat IPC: 0.21065 cumulative IPC: 0.24841 (Simulation time: 0 hr 13 min 23 sec) 
Heartbeat CPU  2 instructions:  102000003 cycles:  199895329 heartbeat IPC: 0.52179 cumulative IPC: 0.24185 (Simulation time: 0 hr 13 min 26 sec) 
Heartbeat CPU  2 instructions:  103000001 cycles:  201758571 heartbeat IPC: 0.53670 cumulative IPC: 0.24497 (Simulation time: 0 hr 13 min 31 sec) 
Heartbeat CPU  1 instructions:   92000000 cycles:  203107238 heartbeat IPC: 0.21385 cumulative IPC: 0.23315 (Simulation time: 0 hr 13 min 34 sec) 
Heartbeat CPU  3 instructions:   88000000 cycles:  203129212 heartbeat IPC: 0.20889 cumulative IPC: 0.21310 (Simulation time: 0 hr 13 min 34 sec) 
Heartbeat CPU  0 instructions:   94000000 cycles:  203431916 heartbeat IPC: 0.21011 cumulative IPC: 0.24739 (Simulation time: 0 hr 13 min 35 sec) 
Heartbeat CPU  2 instructions:  104000000 cycles:  203700366 heartbeat IPC: 0.51499 cumulative IPC: 0.24792 (Simulation time: 0 hr 13 min 36 sec) 
Heartbeat CPU  2 instructions:  105000001 cycles:  205575498 heartbeat IPC: 0.53330 cumulative IPC: 0.25089 (Simulation time: 0 hr 13 min 41 sec) 
Heartbeat CPU  2 instructions:  106000000 cycles:  207192991 heartbeat IPC: 0.61824 cumulative IPC: 0.25416 (Simulation time: 0 hr 13 min 45 sec) 
Heartbeat CPU  3 instructions:   89000003 cycles:  207815265 heartbeat IPC: 0.21340 cumulative IPC: 0.21311 (Simulation time: 0 hr 13 min 46 sec) 
Heartbeat CPU  1 instructions:   93000001 cycles:  207935533 heartbeat IPC: 0.20711 cumulative IPC: 0.23246 (Simulation time: 0 hr 13 min 46 sec) 
Heartbeat CPU  0 instructions:   95000000 cycles:  208188507 heartbeat IPC: 0.21023 cumulative IPC: 0.24642 (Simulation time: 0 hr 13 min 47 sec) 
Heartbeat CPU  3 instructions:   90000003 cycles:  212516047 heartbeat IPC: 0.21273 cumulative IPC: 0.21310 (Simulation time: 0 hr 13 min 56 sec) 
Heartbeat CPU  2 instructions:  107000003 cycles:  212595315 heartbeat IPC: 0.18511 cumulative IPC: 0.25217 (Simulation time: 0 hr 13 min 56 sec) 
Heartbeat CPU  1 instructions:   94000003 cycles:  212655617 heartbeat IPC: 0.21186 cumulative IPC: 0.23194 (Simulation time: 0 hr 13 min 57 sec) 
Heartbeat CPU  0 instructions:   96000000 cycles:  212888314 heartbeat IPC: 0.21277 cumulative IPC: 0.24557 (Simulation time: 0 hr 13 min 57 sec) 
Heartbeat CPU  3 instructions:   91000001 cycles:  217225268 heartbeat IPC: 0.21235 cumulative IPC: 0.21308 (Simulation time: 0 hr 14 min 7 sec) 
Heartbeat CPU  1 instructions:   95000002 cycles:  217355753 heartbeat IPC: 0.21276 cumulative IPC: 0.23147 (Simulation time: 0 hr 14 min 7 sec) 
Heartbeat CPU  0 instructions:   97000003 cycles:  217560200 heartbeat IPC: 0.21405 cumulative IPC: 0.24481 (Simulation time: 0 hr 14 min 7 sec) 
Heartbeat CPU  2 instructions:  108000000 cycles:  218172334 heartbeat IPC: 0.17931 cumulative IPC: 0.25006 (Simulation time: 0 hr 14 min 9 sec) 
Heartbeat CPU  3 instructions:   92000000 cycles:  221945219 heartbeat IPC: 0.21187 cumulative IPC: 0.21305 (Simulation time: 0 hr 14 min 17 sec) 
Heartbeat CPU  1 instructions:   96000000 cycles:  221963458 heartbeat IPC: 0.21703 cumulative IPC: 0.23113 (Simulation time: 0 hr 14 min 17 sec) 
Heartbeat CPU  0 instructions:   98000002 cycles:  222332469 heartbeat IPC: 0.20954 cumulative IPC: 0.24395 (Simulation time: 0 hr 14 min 17 sec) 
Heartbeat CPU  2 instructions:  109000003 cycles:  223942253 heartbeat IPC: 0.17331 cumulative IPC: 0.24782 (Simulation time: 0 hr 14 min 21 sec) 
Heartbeat CPU  1 instructions:   97000003 cycles:  226596701 heartbeat IPC: 0.21583 cumulative IPC: 0.23078 (Simulation time: 0 hr 14 min 26 sec) 
Heartbeat CPU  3 instructions:   93000000 cycles:  226693694 heartbeat IPC: 0.21059 cumulative IPC: 0.21299 (Simulation time: 0 hr 14 min 26 sec) 
Heartbeat CPU  0 instructions:   99000000 cycles:  227267092 heartbeat IPC: 0.20265 cumulative IPC: 0.24294 (Simulation time: 0 hr 14 min 28 sec) 
Heartbeat CPU  2 instructions:  110000002 cycles:  229831698 heartbeat IPC: 0.16980 cumulative IPC: 0.24557 (Simulation time: 0 hr 14 min 33 sec) 
Heartbeat CPU  1 instructions:   98000000 cycles:  231383565 heartbeat IPC: 0.20890 cumulative IPC: 0.23027 (Simulation time: 0 hr 14 min 36 sec) 
Heartbeat CPU  3 instructions:   94000000 cycles:  231407011 heartbeat IPC: 0.21216 cumulative IPC: 0.21297 (Simulation time: 0 hr 14 min 36 sec) 
*** Reached end of trace for Core: 0 Repeating trace: /data3/STREAMING/traces/streaming_phase1_core0.trace.xz
Heartbeat CPU  0 instructions:  100000000 cycles:  232038623 heartbeat IPC: 0.20958 cumulative IPC: 0.24217 (Simulation time: 0 hr 14 min 38 sec) 
Heartbeat CPU  2 instructions:  111000001 cycles:  234037963 heartbeat IPC: 0.23774 cumulative IPC: 0.24542 (Simulation time: 0 hr 14 min 42 sec) 
Heartbeat CPU  2 instructions:  112000000 cycles:  235866552 heartbeat IPC: 0.54687 cumulative IPC: 0.24804 (Simulation time: 0 hr 14 min 47 sec) 
Heartbeat CPU  3 instructions:   95000000 cycles:  236111918 heartbeat IPC: 0.21254 cumulative IPC: 0.21297 (Simulation time: 0 hr 14 min 48 sec) 
Heartbeat CPU  1 instructions:   99000000 cycles:  236243555 heartbeat IPC: 0.20576 cumulative IPC: 0.22971 (Simulation time: 0 hr 14 min 48 sec) 
Heartbeat CPU  0 instructions:  101000001 cycles:  236693653 heartbeat IPC: 0.21482 cumulative IPC: 0.24157 (Simulation time: 0 hr 14 min 49 sec) 
Heartbeat CPU  2 instructions:  113000002 cycles:  237683267 heartbeat IPC: 0.55045 cumulative IPC: 0.25063 (Simulation time: 0 hr 14 min 52 sec) 
Heartbeat CPU  2 instructions:  114000001 cycles:  239607531 heartbeat IPC: 0.51968 cumulative IPC: 0.25305 (Simulation time: 0 hr 14 min 57 sec) 
*** Reached end of trace for Core: 1 Repeating trace: /data3/STREAMING/traces/streaming_phase1_core1.trace.xz
Heartbeat CPU  3 instructions:   96000000 cycles:  240839270 heartbeat IPC: 0.21153 cumulative IPC: 0.21293 (Simulation time: 0 hr 15 min 0 sec) 
Heartbeat CPU  1 instructions:  100000000 cycles:  240899271 heartbeat IPC: 0.21479 cumulative IPC: 0.22938 (Simulation time: 0 hr 15 min 0 sec) 
Heartbeat CPU  0 instructions:  102000000 cycles:  241281489 heartbeat IPC: 0.21797 cumulative IPC: 0.24107 (Simulation time: 0 hr 15 min 1 sec) 
Heartbeat CPU  2 instructions:  115000002 cycles:  241474862 heartbeat IPC: 0.53552 cumulative IPC: 0.25549 (Simulation time: 0 hr 15 min 2 sec) 
Heartbeat CPU  2 instructions:  116000000 cycles:  243286636 heartbeat IPC: 0.55194 cumulative IPC: 0.25796 (Simulation time: 0 hr 15 min 6 sec) 
Heartbeat CPU  2 instructions:  117000000 cycles:  245113030 heartbeat IPC: 0.54753 cumulative IPC: 0.26036 (Simulation time: 0 hr 15 min 11 sec) 
Heartbeat CPU  1 instructions:  101000002 cycles:  245406111 heartbeat IPC: 0.22189 cumulative IPC: 0.22923 (Simulation time: 0 hr 15 min 12 sec) 
Heartbeat CPU  3 instructions:   97000002 cycles:  245573214 heartbeat IPC: 0.21124 cumulative IPC: 0.21290 (Simulation time: 0 hr 15 min 12 sec) 
Heartbeat CPU  0 instructions:  103000000 cycles:  246025426 heartbeat IPC: 0.21080 cumulative IPC: 0.24041 (Simulation time: 0 hr 15 min 13 sec) 
Heartbeat CPU  2 instructions:  118000000 cycles:  246877623 heartbeat IPC: 0.56670 cumulative IPC: 0.26281 (Simulation time: 0 hr 15 min 16 sec) 
Heartbeat CPU  2 instructions:  119000003 cycles:  248638999 heartbeat IPC: 0.56774 cumulative IPC: 0.26522 (Simulation time: 0 hr 15 min 20 sec) 
Heartbeat CPU  1 instructions:  102000001 cycles:  250011946 heartbeat IPC: 0.21712 cumulative IPC: 0.22898 (Simulation time: 0 hr 15 min 24 sec) 
Heartbeat CPU  3 instructions:   98000003 cycles:  250209646 heartbeat IPC: 0.21568 cumulative IPC: 0.21295 (Simulation time: 0 hr 15 min 24 sec) 
Heartbeat CPU  2 instructions:  120000000 cycles:  250344519 heartbeat IPC: 0.58633 cumulative IPC: 0.26765 (Simulation time: 0 hr 15 min 25 sec) 
Heartbeat CPU  0 instructions:  104000000 cycles:  250624206 heartbeat IPC: 0.21745 cumulative IPC: 0.23995 (Simulation time: 0 hr 15 min 25 sec) 
Heartbeat CPU  2 instructions:  121000003 cycles:  252094073 heartbeat IPC: 0.57158 cumulative IPC: 0.27000 (Simulation time: 0 hr 15 min 29 sec) 
Heartbeat CPU  2 instructions:  122000001 cycles:  254049860 heartbeat IPC: 0.51130 cumulative IPC: 0.27206 (Simulation time: 0 hr 15 min 34 sec) 
Heartbeat CPU  1 instructions:  103000000 cycles:  254658207 heartbeat IPC: 0.21523 cumulative IPC: 0.22870 (Simulation time: 0 hr 15 min 36 sec) 
Heartbeat CPU  3 instructions:   99000002 cycles:  255096276 heartbeat IPC: 0.20464 cumulative IPC: 0.21278 (Simulation time: 0 hr 15 min 37 sec) 
Heartbeat CPU  0 instructions:  105000002 cycles:  255236385 heartbeat IPC: 0.21682 cumulative IPC: 0.23948 (Simulation time: 0 hr 15 min 37 sec) 
Heartbeat CPU  2 instructions:  123000001 cycles:  255881666 heartbeat IPC: 0.54591 cumulative IPC: 0.27424 (Simulation time: 0 hr 15 min 39 sec) 
Heartbeat CPU  2 instructions:  124000000 cycles:  257783318 heartbeat IPC: 0.52586 cumulative IPC: 0.27630 (Simulation time: 0 hr 15 min 44 sec) 
Heartbeat CPU  0 instructions:  106000002 cycles:  259198339 heartbeat IPC: 0.25240 cumulative IPC: 0.23970 (Simulation time: 0 hr 15 min 48 sec) 
Heartbeat CPU  1 instructions:  104000000 cycles:  259228670 heartbeat IPC: 0.21880 cumulative IPC: 0.22851 (Simulation time: 0 hr 15 min 48 sec) 
*** Reached end of trace for Core: 3 Repeating trace: /data3/STREAMING/traces/streaming_phase1_core3.trace.xz
Heartbeat CPU  2 instructions:  125000001 cycles:  259788365 heartbeat IPC: 0.49874 cumulative IPC: 0.27821 (Simulation time: 0 hr 15 min 49 sec) 
Heartbeat CPU  3 instructions:  100000000 cycles:  260050413 heartbeat IPC: 0.20185 cumulative IPC: 0.21255 (Simulation time: 0 hr 15 min 50 sec) 
Heartbeat CPU  2 instructions:  126000003 cycles:  261542183 heartbeat IPC: 0.57019 cumulative IPC: 0.28038 (Simulation time: 0 hr 15 min 54 sec) 
Heartbeat CPU  0 instructions:  107000001 cycles:  263265030 heartbeat IPC: 0.24590 cumulative IPC: 0.23981 (Simulation time: 0 hr 15 min 58 sec) 
Heartbeat CPU  2 instructions:  127000001 cycles:  263283499 heartbeat IPC: 0.57428 cumulative IPC: 0.28253 (Simulation time: 0 hr 15 min 58 sec) 
Heartbeat CPU  1 instructions:  105000000 cycles:  263863307 heartbeat IPC: 0.21577 cumulative IPC: 0.22826 (Simulation time: 0 hr 16 min 0 sec) 
Heartbeat CPU  3 instructions:  101000002 cycles:  264731981 heartbeat IPC: 0.21360 cumulative IPC: 0.21257 (Simulation time: 0 hr 16 min 2 sec) 
Heartbeat CPU  2 instructions:  128000000 cycles:  265028980 heartbeat IPC: 0.57291 cumulative IPC: 0.28465 (Simulation time: 0 hr 16 min 3 sec) 
Heartbeat CPU  2 instructions:  129000002 cycles:  266795766 heartbeat IPC: 0.56600 cumulative IPC: 0.28671 (Simulation time: 0 hr 16 min 8 sec) 
Heartbeat CPU  0 instructions:  108000000 cycles:  267749553 heartbeat IPC: 0.22299 cumulative IPC: 0.23949 (Simulation time: 0 hr 16 min 10 sec) 
Heartbeat CPU  1 instructions:  106000002 cycles:  268534011 heartbeat IPC: 0.21410 cumulative IPC: 0.22799 (Simulation time: 0 hr 16 min 12 sec) 
Heartbeat CPU  2 instructions:  130000003 cycles:  268604472 heartbeat IPC: 0.55288 cumulative IPC: 0.28869 (Simulation time: 0 hr 16 min 12 sec) 
Heartbeat CPU  3 instructions:  102000000 cycles:  269429703 heartbeat IPC: 0.21287 cumulative IPC: 0.21257 (Simulation time: 0 hr 16 min 14 sec) 
Heartbeat CPU  2 instructions:  131000000 cycles:  270440767 heartbeat IPC: 0.54457 cumulative IPC: 0.29061 (Simulation time: 0 hr 16 min 17 sec) 
Heartbeat CPU  2 instructions:  132000000 cycles:  272264072 heartbeat IPC: 0.54845 cumulative IPC: 0.29251 (Simulation time: 0 hr 16 min 22 sec) 
Heartbeat CPU  0 instructions:  109000002 cycles:  272357291 heartbeat IPC: 0.21703 cumulative IPC: 0.23907 (Simulation time: 0 hr 16 min 22 sec) 
Heartbeat CPU  1 instructions:  107000002 cycles:  272899987 heartbeat IPC: 0.22904 cumulative IPC: 0.22801 (Simulation time: 0 hr 16 min 24 sec) 
Heartbeat CPU  3 instructions:  103000003 cycles:  274037627 heartbeat IPC: 0.21702 cumulative IPC: 0.21266 (Simulation time: 0 hr 16 min 27 sec) 
Heartbeat CPU  2 instructions:  133000003 cycles:  274048183 heartbeat IPC: 0.56050 cumulative IPC: 0.29444 (Simulation time: 0 hr 16 min 27 sec) 
Heartbeat CPU  2 instructions:  134000002 cycles:  275816952 heartbeat IPC: 0.56536 cumulative IPC: 0.29635 (Simulation time: 0 hr 16 min 31 sec) 
Heartbeat CPU  0 instructions:  110000001 cycles:  277008689 heartbeat IPC: 0.21499 cumulative IPC: 0.23863 (Simulation time: 0 hr 16 min 34 sec) 
Heartbeat CPU  1 instructions:  108000000 cycles:  277474882 heartbeat IPC: 0.21858 cumulative IPC: 0.22784 (Simulation time: 0 hr 16 min 35 sec) 
Heartbeat CPU  2 instructions:  135000000 cycles:  277615643 heartbeat IPC: 0.55596 cumulative IPC: 0.29821 (Simulation time: 0 hr 16 min 36 sec) 
Heartbeat CPU  3 instructions:  104000000 cycles:  278736355 heartbeat IPC: 0.21282 cumulative IPC: 0.21266 (Simulation time: 0 hr 16 min 39 sec) 
Heartbeat CPU  2 instructions:  136000000 cycles:  279512346 heartbeat IPC: 0.52723 cumulative IPC: 0.29992 (Simulation time: 0 hr 16 min 41 sec) 
Heartbeat CPU  0 instructions:  111000001 cycles:  281612994 heartbeat IPC: 0.21719 cumulative IPC: 0.23824 (Simulation time: 0 hr 16 min 45 sec) 
Heartbeat CPU  1 instructions:  109000000 cycles:  282145520 heartbeat IPC: 0.21410 cumulative IPC: 0.22759 (Simulation time: 0 hr 16 min 46 sec) 
Heartbeat CPU  3 instructions:  105000001 cycles:  283472656 heartbeat IPC: 0.21114 cumulative IPC: 0.21263 (Simulation time: 0 hr 16 min 49 sec) 
Heartbeat CPU  2 instructions:  137000000 cycles:  283559159 heartbeat IPC: 0.24711 cumulative IPC: 0.29909 (Simulation time: 0 hr 16 min 49 sec) 
Heartbeat CPU  3 instructions:  106000002 cycles:  284940494 heartbeat IPC: 0.68127 cumulative IPC: 0.21528 (Simulation time: 0 hr 16 min 53 sec) 
Heartbeat CPU  0 instructions:  112000000 cycles:  286227934 heartbeat IPC: 0.21669 cumulative IPC: 0.23786 (Simulation time: 0 hr 16 min 56 sec) 
Heartbeat CPU  1 instructions:  110000003 cycles:  286967361 heartbeat IPC: 0.20739 cumulative IPC: 0.22721 (Simulation time: 0 hr 16 min 57 sec) 
Heartbeat CPU  2 instructions:  138000002 cycles:  289162639 heartbeat IPC: 0.17846 cumulative IPC: 0.29652 (Simulation time: 0 hr 17 min 2 sec) 
Heartbeat CPU  3 instructions:  107000000 cycles:  289419517 heartbeat IPC: 0.22326 cumulative IPC: 0.21542 (Simulation time: 0 hr 17 min 3 sec) 
Heartbeat CPU  0 instructions:  113000002 cycles:  290788654 heartbeat IPC: 0.21926 cumulative IPC: 0.23754 (Simulation time: 0 hr 17 min 5 sec) 
Heartbeat CPU  1 instructions:  111000003 cycles:  291606067 heartbeat IPC: 0.21558 cumulative IPC: 0.22701 (Simulation time: 0 hr 17 min 7 sec) 
Heartbeat CPU  3 instructions:  108000000 cycles:  294011436 heartbeat IPC: 0.21777 cumulative IPC: 0.21546 (Simulation time: 0 hr 17 min 12 sec) 
Heartbeat CPU  2 instructions:  139000001 cycles:  294930193 heartbeat IPC: 0.17338 cumulative IPC: 0.29389 (Simulation time: 0 hr 17 min 14 sec) 
Heartbeat CPU  0 instructions:  114000001 cycles:  295472495 heartbeat IPC: 0.21350 cumulative IPC: 0.23713 (Simulation time: 0 hr 17 min 15 sec) 
Heartbeat CPU  1 instructions:  112000000 cycles:  296299968 heartbeat IPC: 0.21304 cumulative IPC: 0.22677 (Simulation time: 0 hr 17 min 17 sec) 
Heartbeat CPU  3 instructions:  109000000 cycles:  298710872 heartbeat IPC: 0.21279 cumulative IPC: 0.21541 (Simulation time: 0 hr 17 min 23 sec) 
Heartbeat CPU  0 instructions:  115000001 cycles:  300108113 heartbeat IPC: 0.21572 cumulative IPC: 0.23676 (Simulation time: 0 hr 17 min 26 sec) 
Heartbeat CPU  2 instructions:  140000000 cycles:  300513944 heartbeat IPC: 0.17909 cumulative IPC: 0.29156 (Simulation time: 0 hr 17 min 26 sec) 
Heartbeat CPU  1 instructions:  113000001 cycles:  301038493 heartbeat IPC: 0.21104 cumulative IPC: 0.22650 (Simulation time: 0 hr 17 min 28 sec) 
Heartbeat CPU  3 instructions:  110000000 cycles:  303452727 heartbeat IPC: 0.21089 cumulative IPC: 0.21534 (Simulation time: 0 hr 17 min 33 sec) 
Heartbeat CPU  0 instructions:  116000000 cycles:  304781418 heartbeat IPC: 0.21398 cumulative IPC: 0.23638 (Simulation time: 0 hr 17 min 36 sec) 
Heartbeat CPU  1 instructions:  114000003 cycles:  305745513 heartbeat IPC: 0.21245 cumulative IPC: 0.22626 (Simulation time: 0 hr 17 min 38 sec) 
Heartbeat CPU  2 instructions:  141000001 cycles:  306185675 heartbeat IPC: 0.17631 cumulative IPC: 0.28923 (Simulation time: 0 hr 17 min 39 sec) 
Heartbeat CPU  3 instructions:  111000001 cycles:  308086850 heartbeat IPC: 0.21579 cumulative IPC: 0.21534 (Simulation time: 0 hr 17 min 43 sec) 
Heartbeat CPU  0 instructions:  117000002 cycles:  309355236 heartbeat IPC: 0.21864 cumulative IPC: 0.23610 (Simulation time: 0 hr 17 min 46 sec) 
Heartbeat CPU  1 instructions:  115000000 cycles:  310497767 heartbeat IPC: 0.21043 cumulative IPC: 0.22600 (Simulation time: 0 hr 17 min 48 sec) 
Heartbeat CPU  2 instructions:  142000000 cycles:  311957326 heartbeat IPC: 0.17326 cumulative IPC: 0.28689 (Simulation time: 0 hr 17 min 51 sec) 
Heartbeat CPU  3 instructions:  112000000 cycles:  312685608 heartbeat IPC: 0.21745 cumulative IPC: 0.21538 (Simulation time: 0 hr 17 min 53 sec) 
Heartbeat CPU  0 instructions:  118000001 cycles:  313968727 heartbeat IPC: 0.21676 cumulative IPC: 0.23579 (Simulation time: 0 hr 17 min 55 sec) 
Heartbeat CPU  1 instructions:  116000000 cycles:  315026735 heartbeat IPC: 0.22080 cumulative IPC: 0.22592 (Simulation time: 0 hr 17 min 58 sec) 
Heartbeat CPU  3 instructions:  113000002 cycles:  317232539 heartbeat IPC: 0.21993 cumulative IPC: 0.21545 (Simulation time: 0 hr 18 min 2 sec) 
Heartbeat CPU  2 instructions:  143000001 cycles:  317766703 heartbeat IPC: 0.17214 cumulative IPC: 0.28461 (Simulation time: 0 hr 18 min 3 sec) 
Heartbeat CPU  0 instructions:  119000002 cycles:  318503659 heartbeat IPC: 0.22051 cumulative IPC: 0.23555 (Simulation time: 0 hr 18 min 5 sec) 
Heartbeat CPU  1 instructions:  117000000 cycles:  319646773 heartbeat IPC: 0.21645 cumulative IPC: 0.22577 (Simulation time: 0 hr 18 min 7 sec) 
Heartbeat CPU  3 instructions:  114000001 cycles:  321906239 heartbeat IPC: 0.21396 cumulative IPC: 0.21542 (Simulation time: 0 hr 18 min 12 sec) 
Heartbeat CPU  0 instructions:  120000000 cycles:  323026145 heartbeat IPC: 0.22112 cumulative IPC: 0.23533 (Simulation time: 0 hr 18 min 15 sec) 
Heartbeat CPU  2 instructions:  144000000 cycles:  323564406 heartbeat IPC: 0.17248 cumulative IPC: 0.28243 (Simulation time: 0 hr 18 min 16 sec) 
Heartbeat CPU  1 instructions:  118000001 cycles:  324210941 heartbeat IPC: 0.21910 cumulative IPC: 0.22567 (Simulation time: 0 hr 18 min 17 sec) 
Heartbeat CPU  3 instructions:  115000003 cycles:  326551113 heartbeat IPC: 0.21529 cumulative IPC: 0.21542 (Simulation time: 0 hr 18 min 22 sec) 
Heartbeat CPU  0 instructions:  121000003 cycles:  327518493 heartbeat IPC: 0.22260 cumulative IPC: 0.23514 (Simulation time: 0 hr 18 min 25 sec) 
Heartbeat CPU  1 instructions:  119000003 cycles:  328726491 heartbeat IPC: 0.22146 cumulative IPC: 0.22560 (Simulation time: 0 hr 18 min 27 sec) 
Heartbeat CPU  2 instructions:  145000003 cycles:  329347100 heartbeat IPC: 0.17293 cumulative IPC: 0.28034 (Simulation time: 0 hr 18 min 28 sec) 
Heartbeat CPU  3 instructions:  116000000 cycles:  331082440 heartbeat IPC: 0.22069 cumulative IPC: 0.21550 (Simulation time: 0 hr 18 min 32 sec) 
Heartbeat CPU  0 instructions:  122000001 cycles:  332082749 heartbeat IPC: 0.21909 cumulative IPC: 0.23490 (Simulation time: 0 hr 18 min 34 sec) 
Heartbeat CPU  1 instructions:  120000000 cycles:  333213169 heartbeat IPC: 0.22288 cumulative IPC: 0.22556 (Simulation time: 0 hr 18 min 37 sec) 
Heartbeat CPU  2 instructions:  146000001 cycles:  335222417 heartbeat IPC: 0.17020 cumulative IPC: 0.27825 (Simulation time: 0 hr 18 min 41 sec) 
Heartbeat CPU  3 instructions:  117000000 cycles:  335715254 heartbeat IPC: 0.21585 cumulative IPC: 0.21551 (Simulation time: 0 hr 18 min 42 sec) 
Heartbeat CPU  0 instructions:  123000000 cycles:  336832139 heartbeat IPC: 0.21055 cumulative IPC: 0.23453 (Simulation time: 0 hr 18 min 44 sec) 
Heartbeat CPU  1 instructions:  121000002 cycles:  337720373 heartbeat IPC: 0.22187 cumulative IPC: 0.22551 (Simulation time: 0 hr 18 min 46 sec) 
[...]
Core_0_L2C_prefetch_useless 2201523
Core_0_L2C_prefetch_late 151753
Core_0_L2C_average_miss_latency 125.69258

Core_0_L2C_rq_access 9270894
Core_0_L2C_rq_forward 0
Core_0_L2C_rq_merged 0
Core_0_L2C_rq_to_cache 9270104
Core_0_L2C_rq_full 0

Core_0_L2C_wq_access 1159924
Core_0_L2C_wq_forward 814
Core_0_L2C_wq_merged 0
Core_0_L2C_wq_to_cache 1159924
Core_0_L2C_wq_full 0

Core_0_L2C_pq_access 15686270
Core_0_L2C_pq_forward 0
Core_0_L2C_pq_merged 47010
Core_0_L2C_pq_to_cache 15639236
Core_0_L2C_pq_full 0

Core_0_L2C_acc_epochs 176033
Core_0_L2C_acc_level_0 52966
Core_0_L2C_acc_level_1 44817
Core_0_L2C_acc_level_2 29610
Core_0_L2C_acc_level_3 15730
Core_0_L2C_acc_level_4 9484
Core_0_L2C_acc_level_5 5885
Core_0_L2C_acc_level_6 2618
Core_0_L2C_acc_level_7 1731
Core_0_L2C_acc_level_8 1705
Core_0_L2C_acc_level_9 11487

Core_0_LLC_total_access 3689409
Core_0_LLC_total_hit 2775010
Core_0_LLC_total_miss 914399
Core_0_LLC_loads 556224
Core_0_LLC_load_hit 454881
Core_0_LLC_load_miss 101343
Core_0_LLC_RFOs 366505
Core_0_LLC_RFO_hit 230220
Core_0_LLC_RFO_miss 136285
Core_0_LLC_prefetches 2243782
Core_0_LLC_prefetch_hit 1585876
Core_0_LLC_prefetch_miss 657906
Core_0_LLC_writebacks 522898
Core_0_LLC_writeback_hit 504033
Core_0_LLC_writeback_miss 18865
Core_0_LLC_prefetch_requested 0
Core_0_LLC_prefetch_dropped 0
Core_0_LLC_prefetch_issued 0
Core_0_LLC_prefetch_filled 3877962
Core_0_LLC_prefetch_useful 106739
Core_0_LLC_prefetch_useless 3692254
Core_0_LLC_prefetch_late 0
Core_0_LLC_average_miss_latency 724.76931

Core_0_LLC_rq_access 4877243
Core_0_LLC_rq_forward 0
Core_0_LLC_rq_merged 0
Core_0_LLC_rq_to_cache 4876726
Core_0_LLC_rq_full 0

Core_0_LLC_wq_access 2338253
Core_0_LLC_wq_forward 583
Core_0_LLC_wq_merged 0
Core_0_LLC_wq_to_cache 2338253
Core_0_LLC_wq_full 0

Core_0_LLC_pq_access 15762187
Core_0_LLC_pq_forward 0
Core_0_LLC_pq_merged 0
Core_0_LLC_pq_to_cache 15762121
Core_0_LLC_pq_full 0

Core_0_LLC_acc_epochs 708849
Core_0_LLC_acc_level_0 654522
Core_0_LLC_acc_level_1 27684
Core_0_LLC_acc_level_2 13117
Core_0_LLC_acc_level_3 3004
Core_0_LLC_acc_level_4 663
Core_0_LLC_acc_level_5 6878
Core_0_LLC_acc_level_6 543
Core_0_LLC_acc_level_7 565
Core_0_LLC_acc_level_8 172
Core_0_LLC_acc_level_9 1701

Core_0_major_page_fault 0
Core_0_minor_page_fault 17973

Core_1_instructions 150000003
Core_1_cycles 668285680
Core_1_IPC 0.22445

Core_1_branch_prediction_accuracy 97.29173
Core_1_branch_MPKI 4.99719
Core_1_average_ROB_occupancy_at_mispredict 85.62807

Core_1_L1D_total_access 23763774
Core_1_L1D_total_hit 20897627
Core_1_L1D_total_miss 2866147
Core_1_L1D_loads 13717844
Core_1_L1D_load_hit 11626381
Core_1_L1D_load_miss 2091463
Core_1_L1D_RFOs 10045930
Core_1_L1D_RFO_hit 9271246
Core_1_L1D_RFO_miss 774684
Core_1_L1D_prefetches 0
Core_1_L1D_prefetch_hit 0
Core_1_L1D_prefetch_miss 0
Core_1_L1D_writebacks 0
Core_1_L1D_writeback_hit 0
Core_1_L1D_writeback_miss 0
Core_1_L1D_prefetch_requested 0
Core_1_L1D_prefetch_dropped 0
Core_1_L1D_prefetch_issued 0
Core_1_L1D_prefetch_filled 0
Core_1_L1D_prefetch_useful 0
Core_1_L1D_prefetch_useless 0
Core_1_L1D_prefetch_late 0
Core_1_L1D_average_miss_latency 93.58214

Core_1_L1D_rq_access 27263051
Core_1_L1D_rq_forward 0
Core_1_L1D_rq_merged 12409871
Core_1_L1D_rq_to_cache 14850383
Core_1_L1D_rq_full 0

Core_1_L1D_wq_access 13608928
Core_1_L1D_wq_forward 2797
Core_1_L1D_wq_merged 38947
Core_1_L1D_wq_to_cache 13569981
Core_1_L1D_wq_full 0

Core_1_L1D_pq_access 0
Core_1_L1D_pq_forward 0
Core_1_L1D_pq_merged 0
Core_1_L1D_pq_to_cache 0
Core_1_L1D_pq_full 0

Core_1_L1D_acc_epochs 173203
Core_1_L1D_acc_level_0 173203
Core_1_L1D_acc_level_1 0
Core_1_L1D_acc_level_2 0
Core_1_L1D_acc_level_3 0
Core_1_L1D_acc_level_4 0
Core_1_L1D_acc_level_5 0
Core_1_L1D_acc_level_6 0
Core_1_L1D_acc_level_7 0
Core_1_L1D_acc_level_8 0
Core_1_L1D_acc_level_9 0

Core_1_L1I_total_access 32435884
Core_1_L1I_total_hit 26531647
Core_1_L1I_total_miss 5904237
Core_1_L1I_loads 32435884
Core_1_L1I_load_hit 26531647
Core_1_L1I_load_miss 5904237
Core_1_L1I_RFOs 0
Core_1_L1I_RFO_hit 0
Core_1_L1I_RFO_miss 0
Core_1_L1I_prefetches 0
Core_1_L1I_prefetch_hit 0
Core_1_L1I_prefetch_miss 0
Core_1_L1I_writebacks 0
Core_1_L1I_writeback_hit 0
Core_1_L1I_writeback_miss 0
Core_1_L1I_prefetch_requested 0
Core_1_L1I_prefetch_dropped 0
Core_1_L1I_prefetch_issued 0
Core_1_L1I_prefetch_filled 0
Core_1_L1I_prefetch_useful 0
Core_1_L1I_prefetch_useless 0
Core_1_L1I_prefetch_late 0
Core_1_L1I_average_miss_latency 91.93446

Core_1_L1I_rq_access 156998978
Core_1_L1I_rq_forward 0
Core_1_L1I_rq_merged 119407017
Core_1_L1I_rq_to_cache 37591961
Core_1_L1I_rq_full 0

Core_1_L1I_wq_access 0
Core_1_L1I_wq_forward 0
Core_1_L1I_wq_merged 0
Core_1_L1I_wq_to_cache 0
Core_1_L1I_wq_full 0

Core_1_L1I_pq_access 0
Core_1_L1I_pq_forward 0
Core_1_L1I_pq_merged 0
Core_1_L1I_pq_to_cache 0
Core_1_L1I_pq_full 0

Core_1_L1I_acc_epochs 173203
Core_1_L1I_acc_level_0 173203
Core_1_L1I_acc_level_1 0
Core_1_L1I_acc_level_2 0
Core_1_L1I_acc_level_3 0
Core_1_L1I_acc_level_4 0
Core_1_L1I_acc_level_5 0
Core_1_L1I_acc_level_6 0
Core_1_L1I_acc_level_7 0
Core_1_L1I_acc_level_8 0
Core_1_L1I_acc_level_9 0

Core_1_L2C_total_access 20720000
Core_1_L2C_total_hit 17463619
Core_1_L2C_total_miss 3256381
Core_1_L2C_loads 7995433
Core_1_L2C_load_hit 7251323
Core_1_L2C_load_miss 744110
Core_1_L2C_RFOs 774325
Core_1_L2C_RFO_hit 408066
Core_1_L2C_RFO_miss 366259
Core_1_L2C_prefetches 10867634
Core_1_L2C_prefetch_hit 8780519
Core_1_L2C_prefetch_miss 2087115
Core_1_L2C_writebacks 1082608
Core_1_L2C_writeback_hit 1023711
Core_1_L2C_writeback_miss 58897
Core_1_L2C_prefetch_requested 15784027
Core_1_L2C_prefetch_dropped 6973
Core_1_L2C_prefetch_issued 15777054
Core_1_L2C_prefetch_filled 2856332
Core_1_L2C_prefetch_useful 717722
Core_1_L2C_prefetch_useless 2136745
Core_1_L2C_prefetch_late 148591
Core_1_L2C_average_miss_latency 120.24551

Core_1_L2C_rq_access 9209056
Core_1_L2C_rq_forward 0
Core_1_L2C_rq_merged 0
Core_1_L2C_rq_to_cache 9208365
Core_1_L2C_rq_full 0

Core_1_L2C_wq_access 1133278
Core_1_L2C_wq_forward 715
Core_1_L2C_wq_merged 0
Core_1_L2C_wq_to_cache 1133278
Core_1_L2C_wq_full 0

Core_1_L2C_pq_access 15777054
Core_1_L2C_pq_forward 0
Core_1_L2C_pq_merged 174848
Core_1_L2C_pq_to_cache 15602182
Core_1_L2C_pq_full 0

Core_1_L2C_acc_epochs 173203
Core_1_L2C_acc_level_0 50315
Core_1_L2C_acc_level_1 45501
Core_1_L2C_acc_level_2 30841
Core_1_L2C_acc_level_3 16494
Core_1_L2C_acc_level_4 9834
Core_1_L2C_acc_level_5 6164
Core_1_L2C_acc_level_6 2689
Core_1_L2C_acc_level_7 1602
Core_1_L2C_acc_level_8 1462
Core_1_L2C_acc_level_9 8301

Core_1_LLC_total_access 3717814
Core_1_LLC_total_hit 2838871
Core_1_LLC_total_miss 878943
Core_1_LLC_loads 602464
Core_1_LLC_load_hit 498375
Core_1_LLC_load_miss 104089
Core_1_LLC_RFOs 365952
Core_1_LLC_RFO_hit 235227
Core_1_LLC_RFO_miss 130725
Core_1_LLC_prefetches 2228924
Core_1_LLC_prefetch_hit 1602660
Core_1_LLC_prefetch_miss 626264
Core_1_LLC_writebacks 520474
Core_1_LLC_writeback_hit 502609
Core_1_LLC_writeback_miss 17865
Core_1_LLC_prefetch_requested 0
Core_1_LLC_prefetch_dropped 0
Core_1_LLC_prefetch_issued 0
Core_1_LLC_prefetch_filled 3877962
Core_1_LLC_prefetch_useful 106739
Core_1_LLC_prefetch_useless 3692254
Core_1_LLC_prefetch_late 0
Core_1_LLC_average_miss_latency 754.00605

Core_1_LLC_rq_access 4877243
Core_1_LLC_rq_forward 0
Core_1_LLC_rq_merged 0
Core_1_LLC_rq_to_cache 4876726
Core_1_LLC_rq_full 0

Core_1_LLC_wq_access 2338253
Core_1_LLC_wq_forward 583
Core_1_LLC_wq_merged 0
Core_1_LLC_wq_to_cache 2338253
Core_1_LLC_wq_full 0

Core_1_LLC_pq_access 15762187
Core_1_LLC_pq_forward 0
Core_1_LLC_pq_merged 0
Core_1_LLC_pq_to_cache 15762121
Core_1_LLC_pq_full 0

Core_1_LLC_acc_epochs 708849
Core_1_LLC_acc_level_0 654522
Core_1_LLC_acc_level_1 27684
Core_1_LLC_acc_level_2 13117
Core_1_LLC_acc_level_3 3004
Core_1_LLC_acc_level_4 663
Core_1_LLC_acc_level_5 6878
Core_1_LLC_acc_level_6 543
Core_1_LLC_acc_level_7 565
Core_1_LLC_acc_level_8 172
Core_1_LLC_acc_level_9 1701

Core_1_major_page_fault 0
Core_1_minor_page_fault 17503

Core_2_instructions 150000002
Core_2_cycles 584996867
Core_2_IPC 0.25641

Core_2_branch_prediction_accuracy 97.32305
Core_2_branch_MPKI 4.21583
Core_2_average_ROB_occupancy_at_mispredict 86.71342

Core_2_L1D_total_access 19008772
Core_2_L1D_total_hit 16629113
Core_2_L1D_total_miss 2379659
Core_2_L1D_loads 12413132
Core_2_L1D_load_hit 10562311
Core_2_L1D_load_miss 1850821
Core_2_L1D_RFOs 6595640
Core_2_L1D_RFO_hit 6066802
Core_2_L1D_RFO_miss 528838
Core_2_L1D_prefetches 0
Core_2_L1D_prefetch_hit 0
Core_2_L1D_prefetch_miss 0
Core_2_L1D_writebacks 0
Core_2_L1D_writeback_hit 0
Core_2_L1D_writeback_miss 0
Core_2_L1D_prefetch_requested 0
Core_2_L1D_prefetch_dropped 0
Core_2_L1D_prefetch_issued 0
Core_2_L1D_prefetch_filled 0
Core_2_L1D_prefetch_useful 0
Core_2_L1D_prefetch_useless 0
Core_2_L1D_prefetch_late 0
Core_2_L1D_average_miss_latency 106.07195

Core_2_L1D_rq_access 30022852
Core_2_L1D_rq_forward 0
Core_2_L1D_rq_merged 13514870
Core_2_L1D_rq_to_cache 16503889
Core_2_L1D_rq_full 0

Core_2_L1D_wq_access 9869177
Core_2_L1D_wq_forward 4093
Core_2_L1D_wq_merged 29908
Core_2_L1D_wq_to_cache 9839269
Core_2_L1D_wq_full 0

Core_2_L1D_pq_access 0
Core_2_L1D_pq_forward 0
Core_2_L1D_pq_merged 0
Core_2_L1D_pq_to_cache 0
Core_2_L1D_pq_full 0

Core_2_L1D_acc_epochs 181544
Core_2_L1D_acc_level_0 181544
Core_2_L1D_acc_level_1 0
Core_2_L1D_acc_level_2 0
Core_2_L1D_acc_level_3 0
Core_2_L1D_acc_level_4 0
Core_2_L1D_acc_level_5 0
Core_2_L1D_acc_level_6 0
Core_2_L1D_acc_level_7 0
Core_2_L1D_acc_level_8 0
Core_2_L1D_acc_level_9 0

Core_2_L1I_total_access 28913442
Core_2_L1I_total_hit 25548232
Core_2_L1I_total_miss 3365210
Core_2_L1I_loads 28913442
Core_2_L1I_load_hit 25548232
Core_2_L1I_load_miss 3365210
Core_2_L1I_RFOs 0
Core_2_L1I_RFO_hit 0
Core_2_L1I_RFO_miss 0
Core_2_L1I_prefetches 0
Core_2_L1I_prefetch_hit 0
Core_2_L1I_prefetch_miss 0
Core_2_L1I_writebacks 0
Core_2_L1I_writeback_hit 0
Core_2_L1I_writeback_miss 0
Core_2_L1I_prefetch_requested 0
Core_2_L1I_prefetch_dropped 0
Core_2_L1I_prefetch_issued 0
Core_2_L1I_prefetch_filled 0
Core_2_L1I_prefetch_useful 0
Core_2_L1I_prefetch_useless 0
Core_2_L1I_prefetch_late 0
Core_2_L1I_average_miss_latency 124.99364

Core_2_L1I_rq_access 187695023
Core_2_L1I_rq_forward 0
Core_2_L1I_rq_merged 149555333
Core_2_L1I_rq_to_cache 38139690
Core_2_L1I_rq_full 0

Core_2_L1I_wq_access 0
Core_2_L1I_wq_forward 0
Core_2_L1I_wq_merged 0
Core_2_L1I_wq_to_cache 0
Core_2_L1I_wq_full 0

Core_2_L1I_pq_access 0
Core_2_L1I_pq_forward 0
Core_2_L1I_pq_merged 0
Core_2_L1I_pq_to_cache 0
Core_2_L1I_pq_full 0

Core_2_L1I_acc_epochs 181544
Core_2_L1I_acc_level_0 181544
Core_2_L1I_acc_level_1 0
Core_2_L1I_acc_level_2 0
Core_2_L1I_acc_level_3 0
Core_2_L1I_acc_level_4 0
Core_2_L1I_acc_level_5 0
Core_2_L1I_acc_level_6 0
Core_2_L1I_acc_level_7 0
Core_2_L1I_acc_level_8 0
Core_2_L1I_acc_level_9 0

Core_2_L2C_total_access 16178238
Core_2_L2C_total_hit 10339067
Core_2_L2C_total_miss 5839171
Core_2_L2C_loads 5215756
Core_2_L2C_load_hit 3910961
Core_2_L2C_load_miss 1304795
Core_2_L2C_RFOs 528571
Core_2_L2C_RFO_hit 255842
Core_2_L2C_RFO_miss 272729
Core_2_L2C_prefetches 9537971
Core_2_L2C_prefetch_hit 5405206
Core_2_L2C_prefetch_miss 4132765
Core_2_L2C_writebacks 895940
Core_2_L2C_writeback_hit 767058
Core_2_L2C_writeback_miss 128882
Core_2_L2C_prefetch_requested 14780646
Core_2_L2C_prefetch_dropped 27642
Core_2_L2C_prefetch_issued 14753004
Core_2_L2C_prefetch_filled 6210920
Core_2_L2C_prefetch_useful 1692443
Core_2_L2C_prefetch_useless 4516238
Core_2_L2C_prefetch_late 117756
Core_2_L2C_average_miss_latency 137.43597

Core_2_L2C_rq_access 6732703
Core_2_L2C_rq_forward 0
Core_2_L2C_rq_merged 0
Core_2_L2C_rq_to_cache 6732085
Core_2_L2C_rq_full 0

Core_2_L2C_wq_access 1042886
Core_2_L2C_wq_forward 639
Core_2_L2C_wq_merged 0
Core_2_L2C_wq_to_cache 1042886
Core_2_L2C_wq_full 0

Core_2_L2C_pq_access 14753004
Core_2_L2C_pq_forward 0
Core_2_L2C_pq_merged 11252
Core_2_L2C_pq_to_cache 14741731
Core_2_L2C_pq_full 0

Core_2_L2C_acc_epochs 181544
Core_2_L2C_acc_level_0 19853
Core_2_L2C_acc_level_1 58085
Core_2_L2C_acc_level_2 28051
Core_2_L2C_acc_level_3 11017
Core_2_L2C_acc_level_4 6085
Core_2_L2C_acc_level_5 5806
Core_2_L2C_acc_level_6 8419
Core_2_L2C_acc_level_7 10823
Core_2_L2C_acc_level_8 14029
Core_2_L2C_acc_level_9 19376

Core_2_LLC_total_access 6263342
Core_2_LLC_total_hit 5316831
Core_2_LLC_total_miss 946511
Core_2_LLC_loads 1203064
Core_2_LLC_load_hit 1137370
Core_2_LLC_load_miss 65694
Core_2_LLC_RFOs 272372
Core_2_LLC_RFO_hit 197345
Core_2_LLC_RFO_miss 75027
Core_2_LLC_prefetches 4234623
Core_2_LLC_prefetch_hit 3436326
Core_2_LLC_prefetch_miss 798297
Core_2_LLC_writebacks 553283
Core_2_LLC_writeback_hit 545790
Core_2_LLC_writeback_miss 7493
Core_2_LLC_prefetch_requested 0
Core_2_LLC_prefetch_dropped 0
Core_2_LLC_prefetch_issued 0
Core_2_LLC_prefetch_filled 3877962
Core_2_LLC_prefetch_useful 106739
Core_2_LLC_prefetch_useless 3692254
Core_2_LLC_prefetch_late 0
Core_2_LLC_average_miss_latency 700.18028

Core_2_LLC_rq_access 4877243
Core_2_LLC_rq_forward 0
Core_2_LLC_rq_merged 0
Core_2_LLC_rq_to_cache 4876726
Core_2_LLC_rq_full 0

Core_2_LLC_wq_access 2338253
Core_2_LLC_wq_forward 583
Core_2_LLC_wq_merged 0
Core_2_LLC_wq_to_cache 2338253
Core_2_LLC_wq_full 0

Core_2_LLC_pq_access 15762187
Core_2_LLC_pq_forward 0
Core_2_LLC_pq_merged 0
Core_2_LLC_pq_to_cache 15762121
Core_2_LLC_pq_full 0

Core_2_LLC_acc_epochs 708849
Core_2_LLC_acc_level_0 654522
Core_2_LLC_acc_level_1 27684
Core_2_LLC_acc_level_2 13117
Core_2_LLC_acc_level_3 3004
Core_2_LLC_acc_level_4 663
Core_2_LLC_acc_level_5 6878
Core_2_LLC_acc_level_6 543
Core_2_LLC_acc_level_7 565
Core_2_LLC_acc_level_8 172
Core_2_LLC_acc_level_9 1701

Core_2_major_page_fault 0
Core_2_minor_page_fault 15290

Core_3_instructions 150000003
Core_3_cycles 700287905
Core_3_IPC 0.21420

Core_3_branch_prediction_accuracy 97.21748
Core_3_branch_MPKI 5.20952
Core_3_average_ROB_occupancy_at_mispredict 86.33564

Core_3_L1D_total_access 24680559
Core_3_L1D_total_hit 21709680
Core_3_L1D_total_miss 2970879
Core_3_L1D_loads 14142450
Core_3_L1D_load_hit 11999489
Core_3_L1D_load_miss 2142961
Core_3_L1D_RFOs 10538109
Core_3_L1D_RFO_hit 9710191
Core_3_L1D_RFO_miss 827918
Core_3_L1D_prefetches 0
Core_3_L1D_prefetch_hit 0
Core_3_L1D_prefetch_miss 0
Core_3_L1D_writebacks 0
Core_3_L1D_writeback_hit 0
Core_3_L1D_writeback_miss 0
Core_3_L1D_prefetch_requested 0
Core_3_L1D_prefetch_dropped 0
Core_3_L1D_prefetch_issued 0
Core_3_L1D_prefetch_filled 0
Core_3_L1D_prefetch_useful 0
Core_3_L1D_prefetch_useless 0
Core_3_L1D_prefetch_late 0
Core_3_L1D_average_miss_latency 93.29472

Core_3_L1D_rq_access 26503726
Core_3_L1D_rq_forward 0
Core_3_L1D_rq_merged 11989522
Core_3_L1D_rq_to_cache 14511220
Core_3_L1D_rq_full 0

Core_3_L1D_wq_access 13699401
Core_3_L1D_wq_forward 2984
Core_3_L1D_wq_merged 39686
Core_3_L1D_wq_to_cache 13659715
Core_3_L1D_wq_full 0

Core_3_L1D_pq_access 0
Core_3_L1D_pq_forward 0
Core_3_L1D_pq_merged 0
Core_3_L1D_pq_to_cache 0
Core_3_L1D_pq_full 0

Core_3_L1D_acc_epochs 170522
Core_3_L1D_acc_level_0 170522
Core_3_L1D_acc_level_1 0
Core_3_L1D_acc_level_2 0
Core_3_L1D_acc_level_3 0
Core_3_L1D_acc_level_4 0
Core_3_L1D_acc_level_5 0
Core_3_L1D_acc_level_6 0
Core_3_L1D_acc_level_7 0
Core_3_L1D_acc_level_8 0
Core_3_L1D_acc_level_9 0

Core_3_L1I_total_access 32734921
Core_3_L1I_total_hit 26491335
Core_3_L1I_total_miss 6243586
Core_3_L1I_loads 32734921
Core_3_L1I_load_hit 26491335
Core_3_L1I_load_miss 6243586
Core_3_L1I_RFOs 0
Core_3_L1I_RFO_hit 0
Core_3_L1I_RFO_miss 0
Core_3_L1I_prefetches 0
Core_3_L1I_prefetch_hit 0
Core_3_L1I_prefetch_miss 0
Core_3_L1I_writebacks 0
Core_3_L1I_writeback_hit 0
Core_3_L1I_writeback_miss 0
Core_3_L1I_prefetch_requested 0
Core_3_L1I_prefetch_dropped 0
Core_3_L1I_prefetch_issued 0
Core_3_L1I_prefetch_filled 0
Core_3_L1I_prefetch_useful 0
Core_3_L1I_prefetch_useless 0
Core_3_L1I_prefetch_late 0
Core_3_L1I_average_miss_latency 88.37425

Core_3_L1I_rq_access 149999919
Core_3_L1I_rq_forward 0
Core_3_L1I_rq_merged 113604762
Core_3_L1I_rq_to_cache 36395157
Core_3_L1I_rq_full 0

Core_3_L1I_wq_access 0
Core_3_L1I_wq_forward 0
Core_3_L1I_wq_merged 0
Core_3_L1I_wq_to_cache 0
Core_3_L1I_wq_full 0

Core_3_L1I_pq_access 0
Core_3_L1I_pq_forward 0
Core_3_L1I_pq_merged 0
Core_3_L1I_pq_to_cache 0
Core_3_L1I_pq_full 0

Core_3_L1I_acc_epochs 170522
Core_3_L1I_acc_level_0 170522
Core_3_L1I_acc_level_1 0
Core_3_L1I_acc_level_2 0
Core_3_L1I_acc_level_3 0
Core_3_L1I_acc_level_4 0
Core_3_L1I_acc_level_5 0
Core_3_L1I_acc_level_6 0
Core_3_L1I_acc_level_7 0
Core_3_L1I_acc_level_8 0
Core_3_L1I_acc_level_9 0

Core_3_L2C_total_access 21867048
Core_3_L2C_total_hit 18105515
Core_3_L2C_total_miss 3761533
Core_3_L2C_loads 8386318
Core_3_L2C_load_hit 7469556
Core_3_L2C_load_miss 916762
Core_3_L2C_RFOs 827531
Core_3_L2C_RFO_hit 421608
Core_3_L2C_RFO_miss 405923
Core_3_L2C_prefetches 11503905
Core_3_L2C_prefetch_hit 9147730
Core_3_L2C_prefetch_miss 2356175
Core_3_L2C_writebacks 1149294
Core_3_L2C_writeback_hit 1066621
Core_3_L2C_writeback_miss 82673
Core_3_L2C_prefetch_requested 15692826
Core_3_L2C_prefetch_dropped 8882
Core_3_L2C_prefetch_issued 15683944
Core_3_L2C_prefetch_filled 3139623
Core_3_L2C_prefetch_useful 751949
Core_3_L2C_prefetch_useless 2385609
Core_3_L2C_prefetch_late 158231
Core_3_L2C_average_miss_latency 113.28051

Core_3_L2C_rq_access 9214465
Core_3_L2C_rq_forward 0
Core_3_L2C_rq_merged 0
Core_3_L2C_rq_to_cache 9213849
Core_3_L2C_rq_full 0

Core_3_L2C_wq_access 1149294
Core_3_L2C_wq_forward 630
Core_3_L2C_wq_merged 0
Core_3_L2C_wq_to_cache 1149294
Core_3_L2C_wq_full 0

Core_3_L2C_pq_access 15683944
Core_3_L2C_pq_forward 0
Core_3_L2C_pq_merged 35799
Core_3_L2C_pq_to_cache 15648131
Core_3_L2C_pq_full 0

Core_3_L2C_acc_epochs 170522
Core_3_L2C_acc_level_0 40850
Core_3_L2C_acc_level_1 49614
Core_3_L2C_acc_level_2 34108
Core_3_L2C_acc_level_3 17731
Core_3_L2C_acc_level_4 9784
Core_3_L2C_acc_level_5 6140
Core_3_L2C_acc_level_6 2861
Core_3_L2C_acc_level_7 1812
Core_3_L2C_acc_level_8 1537
Core_3_L2C_acc_level_9 6085

Core_3_LLC_total_access 4266623
Core_3_LLC_total_hit 3390057
Core_3_LLC_total_miss 876566
Core_3_LLC_loads 758981
Core_3_LLC_load_hit 656965
Core_3_LLC_load_miss 102016
Core_3_LLC_RFOs 405663
Core_3_LLC_RFO_hit 253914
Core_3_LLC_RFO_miss 151749
Core_3_LLC_prefetches 2514130
Core_3_LLC_prefetch_hit 1915589
Core_3_LLC_prefetch_miss 598541
Core_3_LLC_writebacks 587849
Core_3_LLC_writeback_hit 563589
Core_3_LLC_writeback_miss 24260
Core_3_LLC_prefetch_requested 0
Core_3_LLC_prefetch_dropped 0
Core_3_LLC_prefetch_issued 0
Core_3_LLC_prefetch_filled 3877962
Core_3_LLC_prefetch_useful 106739
Core_3_LLC_prefetch_useless 3692254
Core_3_LLC_prefetch_late 0
Core_3_LLC_average_miss_latency 756.05070

Core_3_LLC_rq_access 4877243
Core_3_LLC_rq_forward 0
Core_3_LLC_rq_merged 0
Core_3_LLC_rq_to_cache 4876726
Core_3_LLC_rq_full 0

Core_3_LLC_wq_access 2338253
Core_3_LLC_wq_forward 583
Core_3_LLC_wq_merged 0
Core_3_LLC_wq_to_cache 2338253
Core_3_LLC_wq_full 0

Core_3_LLC_pq_access 15762187
Core_3_LLC_pq_forward 0
Core_3_LLC_pq_merged 0
Core_3_LLC_pq_to_cache 15762121
Core_3_LLC_pq_full 0

Core_3_LLC_acc_epochs 708849
Core_3_LLC_acc_level_0 654522
Core_3_LLC_acc_level_1 27684
Core_3_LLC_acc_level_2 13117
Core_3_LLC_acc_level_3 3004
Core_3_LLC_acc_level_4 663
Core_3_LLC_acc_level_5 6878
Core_3_LLC_acc_level_6 543
Core_3_LLC_acc_level_7 565
Core_3_LLC_acc_level_8 172
Core_3_LLC_acc_level_9 1701

Core_3_major_page_fault 0
Core_3_minor_page_fault 17867

Channel_0_RQ_row_buffer_hit 585340
Channel_0_RQ_row_buffer_miss 1362748
Channel_0_WQ_row_buffer_hit 52298
Channel_0_WQ_row_buffer_miss 271928
Channel_0_WQ_full 0
Channel_0_dbus_congested 634810

Channel_1_RQ_row_buffer_hit 584352
Channel_1_RQ_row_buffer_miss 1361749
Channel_1_WQ_row_buffer_hit 52159
Channel_1_WQ_row_buffer_miss 272270
Channel_1_WQ_full 0
Channel_1_dbus_congested 629838

avg_congested_cycle 9

DRAM_bw_pochs 2835394
DRAM_bw_level_0 2619076
DRAM_bw_level_1 166867
DRAM_bw_level_2 33955
DRAM_bw_level_3 15496
