*************************************************
   ChampSim Multicore Out-of-Order Simulator
   Last compiled: Mar 31 2025 20:14:32
*************************************************
parsing config file: /data3/config/spp_dev2.ini

trace_0 /data3/CLOUD9/traces/cloud9_phase1_core0.trace.xz
trace_1 /data3/CLOUD9/traces/cloud9_phase1_core1.trace.xz
trace_2 /data3/CLOUD9/traces/cloud9_phase1_core2.trace.xz
trace_3 /data3/CLOUD9/traces/cloud9_phase1_core3.trace.xz
adding L2C_PREFETCHER: SPP_dev2
Initialize SIGNATURE TABLE
ST_SET: 1
ST_WAY: 256
ST_TAG_BIT: 16
ST_TAG_MASK: ffff

Initialize PATTERN TABLE
PT_SET: 512
PT_WAY: 4
SIG_DELTA_BIT: 7
C_SIG_BIT: 4
C_DELTA_BIT: 4

Initialize PREFETCH FILTER
FILTER_SET: 1024
fill_threshold: 90
pf_threshold: 40

adding L2C_PREFETCHER: SPP_dev2
Initialize SIGNATURE TABLE
ST_SET: 1
ST_WAY: 256
ST_TAG_BIT: 16
ST_TAG_MASK: ffff

Initialize PATTERN TABLE
PT_SET: 512
PT_WAY: 4
SIG_DELTA_BIT: 7
C_SIG_BIT: 4
C_DELTA_BIT: 4

Initialize PREFETCH FILTER
FILTER_SET: 1024
fill_threshold: 90
pf_threshold: 40

adding L2C_PREFETCHER: SPP_dev2
Initialize SIGNATURE TABLE
ST_SET: 1
ST_WAY: 256
ST_TAG_BIT: 16
ST_TAG_MASK: ffff

Initialize PATTERN TABLE
PT_SET: 512
PT_WAY: 4
SIG_DELTA_BIT: 7
C_SIG_BIT: 4
C_DELTA_BIT: 4

Initialize PREFETCH FILTER
FILTER_SET: 1024
fill_threshold: 90
pf_threshold: 40

adding L2C_PREFETCHER: SPP_dev2
Initialize SIGNATURE TABLE
ST_SET: 1
ST_WAY: 256
ST_TAG_BIT: 16
ST_TAG_MASK: ffff

Initialize PATTERN TABLE
PT_SET: 512
PT_WAY: 4
SIG_DELTA_BIT: 7
C_SIG_BIT: 4
C_DELTA_BIT: 4

Initialize PREFETCH FILTER
FILTER_SET: 1024
fill_threshold: 90
pf_threshold: 40

Initialize SHIP state
warmup_instructions 50000000
simulation_instructions 150000000
champsim_seed 7338
measure_ipc 0
measure_ipc_epoch 1000
measure_dram_bw 1
measure_dram_bw_epoch 256
measure_cache_acc 1
measure_cache_acc_epoch 1024
l1d_perfect 0
l2c_perfect 0
llc_perfect 0
l1d_semi_perfect 0
l2c_semi_perfect 0
llc_semi_perfect 0
semi_perfect_cache_page_buffer_size 64

num_cpus 4
cpu_freq 4000
dram_io_freq 2400
page_size 4096
block_size 64
max_read_per_cycle 8
max_fill_per_cycle 1
dram_channels 2
log2_dram_channels 1
dram_ranks 1
dram_banks 8
dram_rows 65536
dram_columns 128
dram_row_size 8
dram_size 8192
dram_pages 2097152

fetch_width 6
decode_width 6
exec_width 4
lq_width 2
sq_width 2
retire_width 4
scheduler_size 128
branch_mispredict_penalty 20
rob_size 256
lq_size 72
sq_size 56
num_instr_destinations_sparc 4
num_instr_destinations 2
num_instr_sources 4

itlb_set 16
itlb_way 8
itlb_rq_size 16
itlb_wq_size 16
itlb_pq_size 0
itlb_mshr_size 8
itlb_latency 1

dtlb_set 16
dtlb_way 4
dtlb_rq_size 16
dtlb_wq_size 16
dtlb_pq_size 0
dtlb_mshr_size 8
dtlb_latency 1

stlb_set 128
stlb_way 12
stlb_rq_size 32
stlb_wq_size 32
stlb_pq_size 0
stlb_mshr_size 16
stlb_latency 8

l1i_size 32
l1i_set 64
l1i_way 8
l1i_rq_size 64
l1i_wq_size 64
l1i_pq_size 8
l1i_mshr_size 8
l1i_latency 1

l1d_size 32
l1d_set 64
l1d_way 8
l1d_rq_size 64
l1d_wq_size 64
l1d_pq_size 8
l1d_mshr_size 16
l1d_latency 4

l2c_size 256
l2c_set 512
l2c_way 8
l2c_rq_size 32
l2c_wq_size 32
l2c_pq_size 32
l2c_mshr_size 32
l2c_latency 10

llc_size 8192
llc_set 8192
llc_way 16
llc_rq_size 128
llc_wq_size 128
llc_pq_size 128
llc_mshr_size 256
llc_latency 20

dram_channel_width 8
dram_wq_size 64
dram_rq_size 64
tRP 15
tRCD 15
tCAS 12.5
dram_dbus_turn_around_time 30
dram_write_high_wm 56
dram_write_low_wm 48
min_dram_writes_per_switch 16
dram_mtps 2400
dram_dbus_return_time 13


Heartbeat CPU  1 instructions:    1000001 cycles:     398401 heartbeat IPC: 2.51004 cumulative IPC: 2.51004 (Simulation time: 0 hr 0 min 6 sec) 
Heartbeat CPU  2 instructions:    1000002 cycles:     412372 heartbeat IPC: 2.42500 cumulative IPC: 2.42500 (Simulation time: 0 hr 0 min 6 sec) 
Heartbeat CPU  3 instructions:    1000000 cycles:     444613 heartbeat IPC: 2.24915 cumulative IPC: 2.24915 (Simulation time: 0 hr 0 min 6 sec) 
Heartbeat CPU  0 instructions:    1000000 cycles:     456365 heartbeat IPC: 2.19123 cumulative IPC: 2.19123 (Simulation time: 0 hr 0 min 7 sec) 
Heartbeat CPU  1 instructions:    2000001 cycles:     786864 heartbeat IPC: 2.57425 cumulative IPC: 2.54174 (Simulation time: 0 hr 0 min 11 sec) 
Heartbeat CPU  2 instructions:    2000002 cycles:     817026 heartbeat IPC: 2.47125 cumulative IPC: 2.44791 (Simulation time: 0 hr 0 min 12 sec) 
Heartbeat CPU  3 instructions:    2000003 cycles:     864066 heartbeat IPC: 2.38406 cumulative IPC: 2.31464 (Simulation time: 0 hr 0 min 13 sec) 
Heartbeat CPU  0 instructions:    2000000 cycles:     912866 heartbeat IPC: 2.19058 cumulative IPC: 2.19090 (Simulation time: 0 hr 0 min 13 sec) 
Heartbeat CPU  1 instructions:    3000002 cycles:    1175490 heartbeat IPC: 2.57317 cumulative IPC: 2.55213 (Simulation time: 0 hr 0 min 17 sec) 
Heartbeat CPU  2 instructions:    3000003 cycles:    1221917 heartbeat IPC: 2.46980 cumulative IPC: 2.45516 (Simulation time: 0 hr 0 min 18 sec) 
Heartbeat CPU  3 instructions:    3000001 cycles:    1292855 heartbeat IPC: 2.33214 cumulative IPC: 2.32045 (Simulation time: 0 hr 0 min 19 sec) 
Heartbeat CPU  0 instructions:    3000000 cycles:    1365917 heartbeat IPC: 2.20726 cumulative IPC: 2.19633 (Simulation time: 0 hr 0 min 20 sec) 
Heartbeat CPU  1 instructions:    4000000 cycles:    1564641 heartbeat IPC: 2.56969 cumulative IPC: 2.55650 (Simulation time: 0 hr 0 min 23 sec) 
Heartbeat CPU  2 instructions:    4000000 cycles:    1626217 heartbeat IPC: 2.47340 cumulative IPC: 2.45970 (Simulation time: 0 hr 0 min 24 sec) 
Heartbeat CPU  3 instructions:    4000000 cycles:    1701921 heartbeat IPC: 2.44459 cumulative IPC: 2.35029 (Simulation time: 0 hr 0 min 25 sec) 
Heartbeat CPU  0 instructions:    4000000 cycles:    1814269 heartbeat IPC: 2.23039 cumulative IPC: 2.20474 (Simulation time: 0 hr 0 min 27 sec) 
Heartbeat CPU  1 instructions:    5000002 cycles:    1954064 heartbeat IPC: 2.56791 cumulative IPC: 2.55877 (Simulation time: 0 hr 0 min 29 sec) 
Heartbeat CPU  2 instructions:    5000002 cycles:    2027778 heartbeat IPC: 2.49029 cumulative IPC: 2.46575 (Simulation time: 0 hr 0 min 30 sec) 
Heartbeat CPU  3 instructions:    5000002 cycles:    2106131 heartbeat IPC: 2.47397 cumulative IPC: 2.37402 (Simulation time: 0 hr 0 min 31 sec) 
Heartbeat CPU  0 instructions:    5000001 cycles:    2261219 heartbeat IPC: 2.23739 cumulative IPC: 2.21120 (Simulation time: 0 hr 0 min 34 sec) 
Heartbeat CPU  1 instructions:    6000002 cycles:    2342698 heartbeat IPC: 2.57312 cumulative IPC: 2.56115 (Simulation time: 0 hr 0 min 35 sec) 
Heartbeat CPU  2 instructions:    6000003 cycles:    2425409 heartbeat IPC: 2.51490 cumulative IPC: 2.47381 (Simulation time: 0 hr 0 min 36 sec) 
Heartbeat CPU  3 instructions:    6000000 cycles:    2575231 heartbeat IPC: 2.13174 cumulative IPC: 2.32989 (Simulation time: 0 hr 0 min 38 sec) 
Heartbeat CPU  0 instructions:    6000001 cycles:    2707784 heartbeat IPC: 2.23932 cumulative IPC: 2.21583 (Simulation time: 0 hr 0 min 40 sec) 
Heartbeat CPU  1 instructions:    7000000 cycles:    2733374 heartbeat IPC: 2.55966 cumulative IPC: 2.56094 (Simulation time: 0 hr 0 min 41 sec) 
Heartbeat CPU  2 instructions:    7000003 cycles:    2829785 heartbeat IPC: 2.47295 cumulative IPC: 2.47369 (Simulation time: 0 hr 0 min 42 sec) 
Heartbeat CPU  3 instructions:    7000001 cycles:    2982092 heartbeat IPC: 2.45784 cumulative IPC: 2.34735 (Simulation time: 0 hr 0 min 45 sec) 
Heartbeat CPU  1 instructions:    8000000 cycles:    3121221 heartbeat IPC: 2.57834 cumulative IPC: 2.56310 (Simulation time: 0 hr 0 min 47 sec) 
Heartbeat CPU  0 instructions:    7000000 cycles:    3183832 heartbeat IPC: 2.10063 cumulative IPC: 2.19861 (Simulation time: 0 hr 0 min 48 sec) 
Heartbeat CPU  2 instructions:    8000000 cycles:    3232112 heartbeat IPC: 2.48553 cumulative IPC: 2.47516 (Simulation time: 0 hr 0 min 48 sec) 
Heartbeat CPU  3 instructions:    8000000 cycles:    3386059 heartbeat IPC: 2.47545 cumulative IPC: 2.36263 (Simulation time: 0 hr 0 min 51 sec) 
Heartbeat CPU  1 instructions:    9000001 cycles:    3508621 heartbeat IPC: 2.58131 cumulative IPC: 2.56511 (Simulation time: 0 hr 0 min 53 sec) 
Heartbeat CPU  2 instructions:    9000000 cycles:    3629181 heartbeat IPC: 2.51845 cumulative IPC: 2.47990 (Simulation time: 0 hr 0 min 55 sec) 
Heartbeat CPU  0 instructions:    8000000 cycles:    3638215 heartbeat IPC: 2.20079 cumulative IPC: 2.19888 (Simulation time: 0 hr 0 min 55 sec) 
Heartbeat CPU  3 instructions:    9000003 cycles:    3790743 heartbeat IPC: 2.47107 cumulative IPC: 2.37421 (Simulation time: 0 hr 0 min 57 sec) 
Heartbeat CPU  1 instructions:   10000002 cycles:    3893234 heartbeat IPC: 2.60002 cumulative IPC: 2.56856 (Simulation time: 0 hr 0 min 59 sec) 
Heartbeat CPU  2 instructions:   10000000 cycles:    4031097 heartbeat IPC: 2.48808 cumulative IPC: 2.48071 (Simulation time: 0 hr 1 min 1 sec) 
Heartbeat CPU  0 instructions:    9000000 cycles:    4083852 heartbeat IPC: 2.24398 cumulative IPC: 2.20380 (Simulation time: 0 hr 1 min 2 sec) 
Heartbeat CPU  3 instructions:   10000001 cycles:    4194864 heartbeat IPC: 2.47450 cumulative IPC: 2.38387 (Simulation time: 0 hr 1 min 4 sec) 
Heartbeat CPU  1 instructions:   11000003 cycles:    4282849 heartbeat IPC: 2.56664 cumulative IPC: 2.56838 (Simulation time: 0 hr 1 min 5 sec) 
Heartbeat CPU  2 instructions:   11000001 cycles:    4431117 heartbeat IPC: 2.49988 cumulative IPC: 2.48244 (Simulation time: 0 hr 1 min 7 sec) 
Heartbeat CPU  0 instructions:   10000002 cycles:    4529632 heartbeat IPC: 2.24326 cumulative IPC: 2.20769 (Simulation time: 0 hr 1 min 9 sec) 
Heartbeat CPU  3 instructions:   11000002 cycles:    4599063 heartbeat IPC: 2.47403 cumulative IPC: 2.39179 (Simulation time: 0 hr 1 min 10 sec) 
Heartbeat CPU  1 instructions:   12000000 cycles:    4671092 heartbeat IPC: 2.57570 cumulative IPC: 2.56899 (Simulation time: 0 hr 1 min 11 sec) 
Heartbeat CPU  2 instructions:   12000000 cycles:    4833132 heartbeat IPC: 2.48747 cumulative IPC: 2.48286 (Simulation time: 0 hr 1 min 13 sec) 
Heartbeat CPU  0 instructions:   11000000 cycles:    4985915 heartbeat IPC: 2.19162 cumulative IPC: 2.20621 (Simulation time: 0 hr 1 min 15 sec) 
Heartbeat CPU  1 instructions:   13000000 cycles:    5060165 heartbeat IPC: 2.57021 cumulative IPC: 2.56909 (Simulation time: 0 hr 1 min 16 sec) 
Heartbeat CPU  3 instructions:   12000000 cycles:    5182178 heartbeat IPC: 1.71492 cumulative IPC: 2.31563 (Simulation time: 0 hr 1 min 18 sec) 
Heartbeat CPU  2 instructions:   13000000 cycles:    5231938 heartbeat IPC: 2.50748 cumulative IPC: 2.48474 (Simulation time: 0 hr 1 min 19 sec) 
Heartbeat CPU  0 instructions:   12000000 cycles:    5415619 heartbeat IPC: 2.32718 cumulative IPC: 2.21581 (Simulation time: 0 hr 1 min 22 sec) 
Heartbeat CPU  1 instructions:   14000003 cycles:    5446904 heartbeat IPC: 2.58573 cumulative IPC: 2.57027 (Simulation time: 0 hr 1 min 23 sec) 
Heartbeat CPU  3 instructions:   13000003 cycles:    5586535 heartbeat IPC: 2.47307 cumulative IPC: 2.32702 (Simulation time: 0 hr 1 min 25 sec) 
Heartbeat CPU  2 instructions:   14000002 cycles:    5629515 heartbeat IPC: 2.51524 cumulative IPC: 2.48689 (Simulation time: 0 hr 1 min 26 sec) 
Heartbeat CPU  1 instructions:   15000002 cycles:    5835131 heartbeat IPC: 2.57581 cumulative IPC: 2.57064 (Simulation time: 0 hr 1 min 29 sec) 
Heartbeat CPU  0 instructions:   13000002 cycles:    5836763 heartbeat IPC: 2.37449 cumulative IPC: 2.22726 (Simulation time: 0 hr 1 min 29 sec) 
Heartbeat CPU  3 instructions:   14000000 cycles:    5990812 heartbeat IPC: 2.47354 cumulative IPC: 2.33691 (Simulation time: 0 hr 1 min 32 sec) 
Heartbeat CPU  2 instructions:   15000003 cycles:    6031886 heartbeat IPC: 2.48527 cumulative IPC: 2.48678 (Simulation time: 0 hr 1 min 33 sec) 
Heartbeat CPU  1 instructions:   16000000 cycles:    6222888 heartbeat IPC: 2.57893 cumulative IPC: 2.57115 (Simulation time: 0 hr 1 min 36 sec) 
Heartbeat CPU  0 instructions:   14000000 cycles:    6265866 heartbeat IPC: 2.33044 cumulative IPC: 2.23433 (Simulation time: 0 hr 1 min 37 sec) 
Heartbeat CPU  3 instructions:   15000000 cycles:    6395039 heartbeat IPC: 2.47386 cumulative IPC: 2.34557 (Simulation time: 0 hr 1 min 39 sec) 
Heartbeat CPU  2 instructions:   16000000 cycles:    6428910 heartbeat IPC: 2.51873 cumulative IPC: 2.48876 (Simulation time: 0 hr 1 min 39 sec) 
Heartbeat CPU  1 instructions:   17000001 cycles:    6611054 heartbeat IPC: 2.57622 cumulative IPC: 2.57145 (Simulation time: 0 hr 1 min 42 sec) 
Heartbeat CPU  0 instructions:   15000003 cycles:    6688171 heartbeat IPC: 2.36796 cumulative IPC: 2.24277 (Simulation time: 0 hr 1 min 44 sec) 
Heartbeat CPU  2 instructions:   17000000 cycles:    6832877 heartbeat IPC: 2.47545 cumulative IPC: 2.48797 (Simulation time: 0 hr 1 min 46 sec) 
Heartbeat CPU  3 instructions:   16000000 cycles:    6834527 heartbeat IPC: 2.27537 cumulative IPC: 2.34105 (Simulation time: 0 hr 1 min 46 sec) 
Heartbeat CPU  1 instructions:   18000002 cycles:    6999431 heartbeat IPC: 2.57482 cumulative IPC: 2.57164 (Simulation time: 0 hr 1 min 49 sec) 
Heartbeat CPU  0 instructions:   16000000 cycles:    7122942 heartbeat IPC: 2.30005 cumulative IPC: 2.24626 (Simulation time: 0 hr 1 min 50 sec) 
Heartbeat CPU  2 instructions:   18000001 cycles:    7233082 heartbeat IPC: 2.49872 cumulative IPC: 2.48857 (Simulation time: 0 hr 1 min 52 sec) 
Heartbeat CPU  3 instructions:   17000000 cycles:    7297635 heartbeat IPC: 2.15932 cumulative IPC: 2.32952 (Simulation time: 0 hr 1 min 53 sec) 
Heartbeat CPU  1 instructions:   19000000 cycles:    7387923 heartbeat IPC: 2.57405 cumulative IPC: 2.57176 (Simulation time: 0 hr 1 min 54 sec) 
Heartbeat CPU  0 instructions:   17000000 cycles:    7577439 heartbeat IPC: 2.20023 cumulative IPC: 2.24350 (Simulation time: 0 hr 1 min 57 sec) 
Heartbeat CPU  2 instructions:   19000003 cycles:    7631229 heartbeat IPC: 2.51164 cumulative IPC: 2.48977 (Simulation time: 0 hr 1 min 58 sec) 
Heartbeat CPU  3 instructions:   18000002 cycles:    7746691 heartbeat IPC: 2.22690 cumulative IPC: 2.32357 (Simulation time: 0 hr 2 min 0 sec) 
Heartbeat CPU  1 instructions:   20000000 cycles:    7773747 heartbeat IPC: 2.59186 cumulative IPC: 2.57276 (Simulation time: 0 hr 2 min 0 sec) 
Heartbeat CPU  0 instructions:   18000001 cycles:    8024769 heartbeat IPC: 2.23549 cumulative IPC: 2.24306 (Simulation time: 0 hr 2 min 4 sec) 
Heartbeat CPU  2 instructions:   20000000 cycles:    8029765 heartbeat IPC: 2.50918 cumulative IPC: 2.49073 (Simulation time: 0 hr 2 min 4 sec) 
Heartbeat CPU  1 instructions:   21000000 cycles:    8158839 heartbeat IPC: 2.59678 cumulative IPC: 2.57390 (Simulation time: 0 hr 2 min 6 sec) 
Heartbeat CPU  3 instructions:   19000003 cycles:    8197117 heartbeat IPC: 2.22012 cumulative IPC: 2.31789 (Simulation time: 0 hr 2 min 7 sec) 
Heartbeat CPU  2 instructions:   21000000 cycles:    8432554 heartbeat IPC: 2.48269 cumulative IPC: 2.49035 (Simulation time: 0 hr 2 min 11 sec) 
Heartbeat CPU  0 instructions:   19000003 cycles:    8445660 heartbeat IPC: 2.37592 cumulative IPC: 2.24968 (Simulation time: 0 hr 2 min 11 sec) 
Heartbeat CPU  1 instructions:   22000000 cycles:    8542412 heartbeat IPC: 2.60707 cumulative IPC: 2.57539 (Simulation time: 0 hr 2 min 13 sec) 
Heartbeat CPU  3 instructions:   20000000 cycles:    8657123 heartbeat IPC: 2.17388 cumulative IPC: 2.31024 (Simulation time: 0 hr 2 min 14 sec) 
Heartbeat CPU  2 instructions:   22000000 cycles:    8829707 heartbeat IPC: 2.51792 cumulative IPC: 2.49159 (Simulation time: 0 hr 2 min 17 sec) 
Heartbeat CPU  0 instructions:   20000000 cycles:    8837497 heartbeat IPC: 2.55207 cumulative IPC: 2.26308 (Simulation time: 0 hr 2 min 17 sec) 
Heartbeat CPU  1 instructions:   23000002 cycles:    8923903 heartbeat IPC: 2.62130 cumulative IPC: 2.57735 (Simulation time: 0 hr 2 min 19 sec) 
Heartbeat CPU  3 instructions:   21000000 cycles:    9084505 heartbeat IPC: 2.33983 cumulative IPC: 2.31163 (Simulation time: 0 hr 2 min 22 sec) 
Heartbeat CPU  2 instructions:   23000003 cycles:    9229213 heartbeat IPC: 2.50310 cumulative IPC: 2.49209 (Simulation time: 0 hr 2 min 24 sec) 
Heartbeat CPU  0 instructions:   21000001 cycles:    9231856 heartbeat IPC: 2.53576 cumulative IPC: 2.27473 (Simulation time: 0 hr 2 min 24 sec) 
Heartbeat CPU  1 instructions:   24000000 cycles:    9305146 heartbeat IPC: 2.62299 cumulative IPC: 2.57922 (Simulation time: 0 hr 2 min 25 sec) 
Heartbeat CPU  3 instructions:   22000000 cycles:    9523507 heartbeat IPC: 2.27789 cumulative IPC: 2.31007 (Simulation time: 0 hr 2 min 29 sec) 
Heartbeat CPU  0 instructions:   22000001 cycles:    9626362 heartbeat IPC: 2.53482 cumulative IPC: 2.28539 (Simulation time: 0 hr 2 min 31 sec) 
Heartbeat CPU  2 instructions:   24000000 cycles:    9627306 heartbeat IPC: 2.51197 cumulative IPC: 2.49291 (Simulation time: 0 hr 2 min 31 sec) 
Heartbeat CPU  1 instructions:   25000003 cycles:    9692225 heartbeat IPC: 2.58346 cumulative IPC: 2.57939 (Simulation time: 0 hr 2 min 32 sec) 
Heartbeat CPU  3 instructions:   23000000 cycles:   10018148 heartbeat IPC: 2.02167 cumulative IPC: 2.29583 (Simulation time: 0 hr 2 min 37 sec) 
Heartbeat CPU  0 instructions:   23000002 cycles:   10019972 heartbeat IPC: 2.54059 cumulative IPC: 2.29542 (Simulation time: 0 hr 2 min 37 sec) 
Heartbeat CPU  2 instructions:   25000003 cycles:   10023659 heartbeat IPC: 2.52301 cumulative IPC: 2.49410 (Simulation time: 0 hr 2 min 37 sec) 
Heartbeat CPU  1 instructions:   26000000 cycles:   10075047 heartbeat IPC: 2.61217 cumulative IPC: 2.58063 (Simulation time: 0 hr 2 min 38 sec) 
Heartbeat CPU  0 instructions:   24000000 cycles:   10414204 heartbeat IPC: 2.53657 cumulative IPC: 2.30454 (Simulation time: 0 hr 2 min 44 sec) 
Heartbeat CPU  2 instructions:   26000000 cycles:   10424130 heartbeat IPC: 2.49705 cumulative IPC: 2.49421 (Simulation time: 0 hr 2 min 44 sec) 
Heartbeat CPU  3 instructions:   24000000 cycles:   10454114 heartbeat IPC: 2.29376 cumulative IPC: 2.29575 (Simulation time: 0 hr 2 min 44 sec) 
Heartbeat CPU  1 instructions:   27000000 cycles:   10462450 heartbeat IPC: 2.58129 cumulative IPC: 2.58066 (Simulation time: 0 hr 2 min 45 sec) 
Heartbeat CPU  0 instructions:   25000000 cycles:   10815904 heartbeat IPC: 2.48942 cumulative IPC: 2.31141 (Simulation time: 0 hr 2 min 50 sec) 
Heartbeat CPU  2 instructions:   27000003 cycles:   10825866 heartbeat IPC: 2.48920 cumulative IPC: 2.49403 (Simulation time: 0 hr 2 min 51 sec) 
Heartbeat CPU  1 instructions:   28000000 cycles:   10846861 heartbeat IPC: 2.60138 cumulative IPC: 2.58139 (Simulation time: 0 hr 2 min 51 sec) 
Heartbeat CPU  3 instructions:   25000003 cycles:   10889166 heartbeat IPC: 2.29858 cumulative IPC: 2.29586 (Simulation time: 0 hr 2 min 52 sec) 
Heartbeat CPU  0 instructions:   26000000 cycles:   11219023 heartbeat IPC: 2.48066 cumulative IPC: 2.31749 (Simulation time: 0 hr 2 min 57 sec) 
Heartbeat CPU  2 instructions:   28000000 cycles:   11224957 heartbeat IPC: 2.50569 cumulative IPC: 2.49444 (Simulation time: 0 hr 2 min 57 sec) 
Heartbeat CPU  1 instructions:   29000000 cycles:   11233591 heartbeat IPC: 2.58578 cumulative IPC: 2.58154 (Simulation time: 0 hr 2 min 57 sec) 
Heartbeat CPU  3 instructions:   26000002 cycles:   11325824 heartbeat IPC: 2.29012 cumulative IPC: 2.29564 (Simulation time: 0 hr 2 min 59 sec) 
Heartbeat CPU  1 instructions:   30000002 cycles:   11622827 heartbeat IPC: 2.56914 cumulative IPC: 2.58113 (Simulation time: 0 hr 3 min 4 sec) 
Heartbeat CPU  2 instructions:   29000001 cycles:   11626949 heartbeat IPC: 2.48761 cumulative IPC: 2.49421 (Simulation time: 0 hr 3 min 4 sec) 
Heartbeat CPU  0 instructions:   27000000 cycles:   11631949 heartbeat IPC: 2.42174 cumulative IPC: 2.32119 (Simulation time: 0 hr 3 min 4 sec) 
Heartbeat CPU  3 instructions:   27000002 cycles:   11939155 heartbeat IPC: 1.63044 cumulative IPC: 2.26147 (Simulation time: 0 hr 3 min 8 sec) 
Heartbeat CPU  1 instructions:   31000002 cycles:   12014251 heartbeat IPC: 2.55477 cumulative IPC: 2.58027 (Simulation time: 0 hr 3 min 10 sec) 
Heartbeat CPU  2 instructions:   30000000 cycles:   12026361 heartbeat IPC: 2.50368 cumulative IPC: 2.49452 (Simulation time: 0 hr 3 min 10 sec) 
Heartbeat CPU  0 instructions:   28000000 cycles:   12042020 heartbeat IPC: 2.43860 cumulative IPC: 2.32519 (Simulation time: 0 hr 3 min 10 sec) 
Heartbeat CPU  3 instructions:   28000000 cycles:   12378633 heartbeat IPC: 2.27542 cumulative IPC: 2.26196 (Simulation time: 0 hr 3 min 16 sec) 
Heartbeat CPU  1 instructions:   32000000 cycles:   12403478 heartbeat IPC: 2.56919 cumulative IPC: 2.57992 (Simulation time: 0 hr 3 min 16 sec) 
Heartbeat CPU  2 instructions:   31000003 cycles:   12424371 heartbeat IPC: 2.51251 cumulative IPC: 2.49510 (Simulation time: 0 hr 3 min 16 sec) 
Heartbeat CPU  0 instructions:   29000000 cycles:   12451564 heartbeat IPC: 2.44174 cumulative IPC: 2.32902 (Simulation time: 0 hr 3 min 17 sec) 
Heartbeat CPU  1 instructions:   33000003 cycles:   12790979 heartbeat IPC: 2.58065 cumulative IPC: 2.57994 (Simulation time: 0 hr 3 min 22 sec) 
Heartbeat CPU  3 instructions:   29000001 cycles:   12818040 heartbeat IPC: 2.27580 cumulative IPC: 2.26244 (Simulation time: 0 hr 3 min 23 sec) 
Heartbeat CPU  2 instructions:   32000000 cycles:   12823100 heartbeat IPC: 2.50796 cumulative IPC: 2.49550 (Simulation time: 0 hr 3 min 23 sec) 
Heartbeat CPU  0 instructions:   30000002 cycles:   12859184 heartbeat IPC: 2.45327 cumulative IPC: 2.33296 (Simulation time: 0 hr 3 min 24 sec) 
Heartbeat CPU  1 instructions:   34000000 cycles:   13179706 heartbeat IPC: 2.57249 cumulative IPC: 2.57972 (Simulation time: 0 hr 3 min 29 sec) 
Heartbeat CPU  2 instructions:   33000002 cycles:   13222394 heartbeat IPC: 2.50443 cumulative IPC: 2.49577 (Simulation time: 0 hr 3 min 30 sec) 
Heartbeat CPU  3 instructions:   30000003 cycles:   13254791 heartbeat IPC: 2.28964 cumulative IPC: 2.26333 (Simulation time: 0 hr 3 min 30 sec) 
Heartbeat CPU  0 instructions:   31000002 cycles:   13269230 heartbeat IPC: 2.43875 cumulative IPC: 2.33623 (Simulation time: 0 hr 3 min 30 sec) 
Heartbeat CPU  1 instructions:   35000000 cycles:   13569090 heartbeat IPC: 2.56816 cumulative IPC: 2.57939 (Simulation time: 0 hr 3 min 35 sec) 
Heartbeat CPU  2 instructions:   34000001 cycles:   13623096 heartbeat IPC: 2.49562 cumulative IPC: 2.49576 (Simulation time: 0 hr 3 min 36 sec) 
Heartbeat CPU  0 instructions:   32000000 cycles:   13677850 heartbeat IPC: 2.44726 cumulative IPC: 2.33955 (Simulation time: 0 hr 3 min 37 sec) 
Heartbeat CPU  3 instructions:   31000000 cycles:   13704684 heartbeat IPC: 2.22274 cumulative IPC: 2.26200 (Simulation time: 0 hr 3 min 37 sec) 
Heartbeat CPU  1 instructions:   36000000 cycles:   13957955 heartbeat IPC: 2.57159 cumulative IPC: 2.57917 (Simulation time: 0 hr 3 min 42 sec) 
Heartbeat CPU  2 instructions:   35000003 cycles:   14022608 heartbeat IPC: 2.50306 cumulative IPC: 2.49597 (Simulation time: 0 hr 3 min 43 sec) 
Heartbeat CPU  0 instructions:   33000000 cycles:   14086681 heartbeat IPC: 2.44600 cumulative IPC: 2.34264 (Simulation time: 0 hr 3 min 44 sec) 
Heartbeat CPU  3 instructions:   32000000 cycles:   14157961 heartbeat IPC: 2.20616 cumulative IPC: 2.26021 (Simulation time: 0 hr 3 min 45 sec) 
Heartbeat CPU  1 instructions:   37000003 cycles:   14343992 heartbeat IPC: 2.59043 cumulative IPC: 2.57948 (Simulation time: 0 hr 3 min 48 sec) 
Heartbeat CPU  2 instructions:   36000000 cycles:   14425831 heartbeat IPC: 2.48001 cumulative IPC: 2.49552 (Simulation time: 0 hr 3 min 49 sec) 
Heartbeat CPU  0 instructions:   34000002 cycles:   14491367 heartbeat IPC: 2.47106 cumulative IPC: 2.34622 (Simulation time: 0 hr 3 min 50 sec) 
Heartbeat CPU  3 instructions:   33000000 cycles:   14597726 heartbeat IPC: 2.27394 cumulative IPC: 2.26063 (Simulation time: 0 hr 3 min 52 sec) 
Heartbeat CPU  1 instructions:   38000003 cycles:   14733699 heartbeat IPC: 2.56603 cumulative IPC: 2.57912 (Simulation time: 0 hr 3 min 54 sec) 
Heartbeat CPU  2 instructions:   37000002 cycles:   14824728 heartbeat IPC: 2.50692 cumulative IPC: 2.49583 (Simulation time: 0 hr 3 min 56 sec) 
Heartbeat CPU  0 instructions:   35000003 cycles:   14899185 heartbeat IPC: 2.45208 cumulative IPC: 2.34912 (Simulation time: 0 hr 3 min 57 sec) 
Heartbeat CPU  3 instructions:   34000002 cycles:   15044331 heartbeat IPC: 2.23912 cumulative IPC: 2.25999 (Simulation time: 0 hr 3 min 59 sec) 
Heartbeat CPU  1 instructions:   39000000 cycles:   15123176 heartbeat IPC: 2.56754 cumulative IPC: 2.57882 (Simulation time: 0 hr 4 min 1 sec) 
Heartbeat CPU  2 instructions:   38000003 cycles:   15226497 heartbeat IPC: 2.48899 cumulative IPC: 2.49565 (Simulation time: 0 hr 4 min 2 sec) 
Heartbeat CPU  0 instructions:   36000000 cycles:   15305931 heartbeat IPC: 2.45853 cumulative IPC: 2.35203 (Simulation time: 0 hr 4 min 4 sec) 
Heartbeat CPU  3 instructions:   35000000 cycles:   15501287 heartbeat IPC: 2.18839 cumulative IPC: 2.25788 (Simulation time: 0 hr 4 min 7 sec) 
Heartbeat CPU  1 instructions:   40000000 cycles:   15510958 heartbeat IPC: 2.57877 cumulative IPC: 2.57882 (Simulation time: 0 hr 4 min 7 sec) 
Heartbeat CPU  2 instructions:   39000000 cycles:   15624025 heartbeat IPC: 2.51554 cumulative IPC: 2.49616 (Simulation time: 0 hr 4 min 9 sec) 
Heartbeat CPU  0 instructions:   37000000 cycles:   15711047 heartbeat IPC: 2.46843 cumulative IPC: 2.35503 (Simulation time: 0 hr 4 min 10 sec) 
Heartbeat CPU  1 instructions:   41000001 cycles:   15899100 heartbeat IPC: 2.57638 cumulative IPC: 2.57876 (Simulation time: 0 hr 4 min 14 sec) 
Heartbeat CPU  3 instructions:   36000000 cycles:   15930525 heartbeat IPC: 2.32971 cumulative IPC: 2.25981 (Simulation time: 0 hr 4 min 14 sec) 
Heartbeat CPU  2 instructions:   40000000 cycles:   16026987 heartbeat IPC: 2.48162 cumulative IPC: 2.49579 (Simulation time: 0 hr 4 min 16 sec) 
Heartbeat CPU  0 instructions:   38000001 cycles:   16114694 heartbeat IPC: 2.47741 cumulative IPC: 2.35810 (Simulation time: 0 hr 4 min 17 sec) 
Heartbeat CPU  1 instructions:   42000001 cycles:   16285953 heartbeat IPC: 2.58496 cumulative IPC: 2.57891 (Simulation time: 0 hr 4 min 20 sec) 
Heartbeat CPU  2 instructions:   41000002 cycles:   16427007 heartbeat IPC: 2.49988 cumulative IPC: 2.49589 (Simulation time: 0 hr 4 min 22 sec) 
Heartbeat CPU  3 instructions:   37000001 cycles:   16431044 heartbeat IPC: 1.99793 cumulative IPC: 2.25184 (Simulation time: 0 hr 4 min 22 sec) 
Heartbeat CPU  0 instructions:   39000001 cycles:   16518174 heartbeat IPC: 2.47844 cumulative IPC: 2.36104 (Simulation time: 0 hr 4 min 24 sec) 
Heartbeat CPU  1 instructions:   43000003 cycles:   16673077 heartbeat IPC: 2.58316 cumulative IPC: 2.57901 (Simulation time: 0 hr 4 min 26 sec) 
Heartbeat CPU  2 instructions:   42000002 cycles:   16823962 heartbeat IPC: 2.51918 cumulative IPC: 2.49644 (Simulation time: 0 hr 4 min 29 sec) 
Heartbeat CPU  3 instructions:   38000001 cycles:   16858151 heartbeat IPC: 2.34133 cumulative IPC: 2.25410 (Simulation time: 0 hr 4 min 30 sec) 
Heartbeat CPU  0 instructions:   40000000 cycles:   16919408 heartbeat IPC: 2.49231 cumulative IPC: 2.36415 (Simulation time: 0 hr 4 min 31 sec) 
Heartbeat CPU  1 instructions:   44000000 cycles:   17059669 heartbeat IPC: 2.58670 cumulative IPC: 2.57918 (Simulation time: 0 hr 4 min 33 sec) 
Heartbeat CPU  2 instructions:   43000000 cycles:   17225181 heartbeat IPC: 2.49240 cumulative IPC: 2.49635 (Simulation time: 0 hr 4 min 36 sec) 
Heartbeat CPU  3 instructions:   39000002 cycles:   17295347 heartbeat IPC: 2.28731 cumulative IPC: 2.25494 (Simulation time: 0 hr 4 min 37 sec) 
Heartbeat CPU  0 instructions:   41000000 cycles:   17333639 heartbeat IPC: 2.41411 cumulative IPC: 2.36534 (Simulation time: 0 hr 4 min 38 sec) 
Heartbeat CPU  1 instructions:   45000002 cycles:   17447060 heartbeat IPC: 2.58138 cumulative IPC: 2.57923 (Simulation time: 0 hr 4 min 39 sec) 
Heartbeat CPU  2 instructions:   44000000 cycles:   17625229 heartbeat IPC: 2.49970 cumulative IPC: 2.49642 (Simulation time: 0 hr 4 min 42 sec) 
Heartbeat CPU  3 instructions:   40000000 cycles:   17730535 heartbeat IPC: 2.29785 cumulative IPC: 2.25600 (Simulation time: 0 hr 4 min 44 sec) 
Heartbeat CPU  0 instructions:   42000001 cycles:   17745786 heartbeat IPC: 2.42632 cumulative IPC: 2.36676 (Simulation time: 0 hr 4 min 44 sec) 
Heartbeat CPU  1 instructions:   46000002 cycles:   17836491 heartbeat IPC: 2.56785 cumulative IPC: 2.57898 (Simulation time: 0 hr 4 min 46 sec) 
Heartbeat CPU  2 instructions:   45000001 cycles:   18021671 heartbeat IPC: 2.52244 cumulative IPC: 2.49699 (Simulation time: 0 hr 4 min 49 sec) 
Heartbeat CPU  0 instructions:   43000002 cycles:   18157505 heartbeat IPC: 2.42884 cumulative IPC: 2.36817 (Simulation time: 0 hr 4 min 51 sec) 
Heartbeat CPU  3 instructions:   41000000 cycles:   18166809 heartbeat IPC: 2.29214 cumulative IPC: 2.25686 (Simulation time: 0 hr 4 min 52 sec) 
Heartbeat CPU  1 instructions:   47000001 cycles:   18226150 heartbeat IPC: 2.56634 cumulative IPC: 2.57871 (Simulation time: 0 hr 4 min 52 sec) 
Heartbeat CPU  2 instructions:   46000000 cycles:   18419341 heartbeat IPC: 2.51465 cumulative IPC: 2.49738 (Simulation time: 0 hr 4 min 56 sec) 
Heartbeat CPU  0 instructions:   44000000 cycles:   18574212 heartbeat IPC: 2.39976 cumulative IPC: 2.36888 (Simulation time: 0 hr 4 min 58 sec) 
Heartbeat CPU  1 instructions:   48000000 cycles:   18616361 heartbeat IPC: 2.56271 cumulative IPC: 2.57838 (Simulation time: 0 hr 4 min 58 sec) 
Heartbeat CPU  3 instructions:   42000003 cycles:   18774539 heartbeat IPC: 1.64547 cumulative IPC: 2.23707 (Simulation time: 0 hr 5 min 1 sec) 
Heartbeat CPU  2 instructions:   47000001 cycles:   18820021 heartbeat IPC: 2.49576 cumulative IPC: 2.49734 (Simulation time: 0 hr 5 min 2 sec) 
Heartbeat CPU  0 instructions:   45000002 cycles:   18997248 heartbeat IPC: 2.36387 cumulative IPC: 2.36876 (Simulation time: 0 hr 5 min 4 sec) 
Heartbeat CPU  1 instructions:   49000001 cycles:   19006441 heartbeat IPC: 2.56358 cumulative IPC: 2.57807 (Simulation time: 0 hr 5 min 5 sec) 
Heartbeat CPU  3 instructions:   43000000 cycles:   19215862 heartbeat IPC: 2.26591 cumulative IPC: 2.23773 (Simulation time: 0 hr 5 min 8 sec) 
Heartbeat CPU  2 instructions:   48000000 cycles:   19218140 heartbeat IPC: 2.51181 cumulative IPC: 2.49764 (Simulation time: 0 hr 5 min 8 sec) 
Heartbeat CPU  1 instructions:   50000002 cycles:   19395560 heartbeat IPC: 2.56991 cumulative IPC: 2.57791 (Simulation time: 0 hr 5 min 11 sec) 
Heartbeat CPU  0 instructions:   46000003 cycles:   19423171 heartbeat IPC: 2.34784 cumulative IPC: 2.36831 (Simulation time: 0 hr 5 min 11 sec) 
Heartbeat CPU  2 instructions:   49000001 cycles:   19619363 heartbeat IPC: 2.49238 cumulative IPC: 2.49753 (Simulation time: 0 hr 5 min 14 sec) 
Heartbeat CPU  3 instructions:   44000000 cycles:   19654516 heartbeat IPC: 2.27970 cumulative IPC: 2.23867 (Simulation time: 0 hr 5 min 15 sec) 
Heartbeat CPU  1 instructions:   51000000 cycles:   19785626 heartbeat IPC: 2.56366 cumulative IPC: 0.05054 (Simulation time: 0 hr 5 min 17 sec) 
Heartbeat CPU  0 instructions:   47000002 cycles:   19865637 heartbeat IPC: 2.26006 cumulative IPC: 2.36589 (Simulation time: 0 hr 5 min 18 sec) 
Heartbeat CPU  2 instructions:   50000001 cycles:   20017694 heartbeat IPC: 2.51047 cumulative IPC: 2.49779 (Simulation time: 0 hr 5 min 21 sec) 
Heartbeat CPU  3 instructions:   45000001 cycles:   20093590 heartbeat IPC: 2.27752 cumulative IPC: 2.23952 (Simulation time: 0 hr 5 min 22 sec) 
Heartbeat CPU  1 instructions:   52000000 cycles:   20176047 heartbeat IPC: 2.56134 cumulative IPC: 0.09913 (Simulation time: 0 hr 5 min 23 sec) 
Heartbeat CPU  0 instructions:   48000000 cycles:   20309737 heartbeat IPC: 2.25174 cumulative IPC: 2.36340 (Simulation time: 0 hr 5 min 25 sec) 
Heartbeat CPU  2 instructions:   51000000 cycles:   20415322 heartbeat IPC: 2.51491 cumulative IPC: 0.04898 (Simulation time: 0 hr 5 min 27 sec) 
Heartbeat CPU  3 instructions:   46000001 cycles:   20546531 heartbeat IPC: 2.20779 cumulative IPC: 2.23882 (Simulation time: 0 hr 5 min 29 sec) 
Heartbeat CPU  1 instructions:   53000003 cycles:   20560227 heartbeat IPC: 2.60295 cumulative IPC: 0.14591 (Simulation time: 0 hr 5 min 29 sec) 
Heartbeat CPU  0 instructions:   49000001 cycles:   20709815 heartbeat IPC: 2.49952 cumulative IPC: 2.36603 (Simulation time: 0 hr 5 min 32 sec) 
Heartbeat CPU  2 instructions:   52000000 cycles:   20812745 heartbeat IPC: 2.51621 cumulative IPC: 0.09609 (Simulation time: 0 hr 5 min 33 sec) 
Heartbeat CPU  1 instructions:   54000002 cycles:   20946296 heartbeat IPC: 2.59021 cumulative IPC: 0.19096 (Simulation time: 0 hr 5 min 35 sec) 
Heartbeat CPU  3 instructions:   47000000 cycles:   20993760 heartbeat IPC: 2.23599 cumulative IPC: 2.23876 (Simulation time: 0 hr 5 min 36 sec) 
Heartbeat CPU  0 instructions:   50000003 cycles:   21107472 heartbeat IPC: 2.51473 cumulative IPC: 2.36883 (Simulation time: 0 hr 5 min 38 sec) 
Heartbeat CPU  2 instructions:   53000001 cycles:   21211058 heartbeat IPC: 2.51059 cumulative IPC: 0.14144 (Simulation time: 0 hr 5 min 39 sec) 
Heartbeat CPU  1 instructions:   55000002 cycles:   21335169 heartbeat IPC: 2.57153 cumulative IPC: 0.23435 (Simulation time: 0 hr 5 min 41 sec) 
Heartbeat CPU  3 instructions:   48000000 cycles:   21436503 heartbeat IPC: 2.25865 cumulative IPC: 2.23917 (Simulation time: 0 hr 5 min 43 sec) 
Heartbeat CPU  0 instructions:   51000001 cycles:   21497995 heartbeat IPC: 2.56066 cumulative IPC: 0.04652 (Simulation time: 0 hr 5 min 44 sec) 
Heartbeat CPU  2 instructions:   54000000 cycles:   21609324 heartbeat IPC: 2.51088 cumulative IPC: 0.18511 (Simulation time: 0 hr 5 min 46 sec) 
Heartbeat CPU  1 instructions:   56000000 cycles:   21724416 heartbeat IPC: 2.56906 cumulative IPC: 0.27619 (Simulation time: 0 hr 5 min 48 sec) 
Heartbeat CPU  3 instructions:   49000000 cycles:   21879750 heartbeat IPC: 2.25608 cumulative IPC: 2.23951 (Simulation time: 0 hr 5 min 50 sec) 
Heartbeat CPU  0 instructions:   52000000 cycles:   21904149 heartbeat IPC: 2.46212 cumulative IPC: 0.09131 (Simulation time: 0 hr 5 min 51 sec) 
Heartbeat CPU  2 instructions:   55000001 cycles:   22007901 heartbeat IPC: 2.50893 cumulative IPC: 0.22719 (Simulation time: 0 hr 5 min 52 sec) 
Heartbeat CPU  1 instructions:   57000000 cycles:   22113708 heartbeat IPC: 2.56877 cumulative IPC: 0.31655 (Simulation time: 0 hr 5 min 54 sec) 
Heartbeat CPU  0 instructions:   53000003 cycles:   22291452 heartbeat IPC: 2.58197 cumulative IPC: 0.13458 (Simulation time: 0 hr 5 min 57 sec) 
Heartbeat CPU  3 instructions:   50000000 cycles:   22330903 heartbeat IPC: 2.21654 cumulative IPC: 2.23905 (Simulation time: 0 hr 5 min 57 sec) 

Warmup complete CPU  0 instructions:   53101941 cycles:   22330904 (Simulation time: 0 hr 5 min 57 sec) 
Warmup complete CPU  1 instructions:   57556587 cycles:   22330904 (Simulation time: 0 hr 5 min 57 sec) 
Warmup complete CPU  2 instructions:   55808594 cycles:   22330904 (Simulation time: 0 hr 5 min 57 sec) 
Warmup complete CPU  3 instructions:   50000004 cycles:   22330904 (Simulation time: 0 hr 5 min 57 sec) 

Heartbeat CPU  2 instructions:   56000000 cycles:   23605515 heartbeat IPC: 0.62593 cumulative IPC: 0.15017 (Simulation time: 0 hr 5 min 59 sec) 
Heartbeat CPU  1 instructions:   58000001 cycles:   25267756 heartbeat IPC: 0.31705 cumulative IPC: 0.15098 (Simulation time: 0 hr 6 min 2 sec) 
Heartbeat CPU  0 instructions:   54000002 cycles:   27880423 heartbeat IPC: 0.17892 cumulative IPC: 0.16183 (Simulation time: 0 hr 6 min 6 sec) 
Heartbeat CPU  2 instructions:   57000000 cycles:   30295655 heartbeat IPC: 0.14947 cumulative IPC: 0.14958 (Simulation time: 0 hr 6 min 9 sec) 
Heartbeat CPU  3 instructions:   51000003 cycles:   30744412 heartbeat IPC: 0.11886 cumulative IPC: 0.11886 (Simulation time: 0 hr 6 min 10 sec) 
Heartbeat CPU  1 instructions:   59000003 cycles:   31875159 heartbeat IPC: 0.15135 cumulative IPC: 0.15123 (Simulation time: 0 hr 6 min 11 sec) 
Heartbeat CPU  0 instructions:   55000003 cycles:   34049179 heartbeat IPC: 0.16211 cumulative IPC: 0.16197 (Simulation time: 0 hr 6 min 15 sec) 
Heartbeat CPU  2 instructions:   58000001 cycles:   36980481 heartbeat IPC: 0.14959 cumulative IPC: 0.14959 (Simulation time: 0 hr 6 min 19 sec) 
Heartbeat CPU  1 instructions:   60000000 cycles:   38474881 heartbeat IPC: 0.15152 cumulative IPC: 0.15135 (Simulation time: 0 hr 6 min 21 sec) 
Heartbeat CPU  3 instructions:   52000000 cycles:   39150497 heartbeat IPC: 0.11896 cumulative IPC: 0.11891 (Simulation time: 0 hr 6 min 22 sec) 
Heartbeat CPU  0 instructions:   56000000 cycles:   39968697 heartbeat IPC: 0.16893 cumulative IPC: 0.16431 (Simulation time: 0 hr 6 min 23 sec) 
Heartbeat CPU  2 instructions:   59000002 cycles:   43674375 heartbeat IPC: 0.14939 cumulative IPC: 0.14953 (Simulation time: 0 hr 6 min 29 sec) 
Heartbeat CPU  1 instructions:   61000002 cycles:   45023550 heartbeat IPC: 0.15270 cumulative IPC: 0.15174 (Simulation time: 0 hr 6 min 31 sec) 
Heartbeat CPU  0 instructions:   57000003 cycles:   45960268 heartbeat IPC: 0.16690 cumulative IPC: 0.16497 (Simulation time: 0 hr 6 min 32 sec) 
Heartbeat CPU  3 instructions:   53000002 cycles:   47587611 heartbeat IPC: 0.11852 cumulative IPC: 0.11878 (Simulation time: 0 hr 6 min 35 sec) 
Heartbeat CPU  2 instructions:   60000000 cycles:   50364340 heartbeat IPC: 0.14948 cumulative IPC: 0.14951 (Simulation time: 0 hr 6 min 39 sec) 
Heartbeat CPU  1 instructions:   62000003 cycles:   51647137 heartbeat IPC: 0.15098 cumulative IPC: 0.15157 (Simulation time: 0 hr 6 min 40 sec) 
Heartbeat CPU  0 instructions:   58000003 cycles:   52044392 heartbeat IPC: 0.16436 cumulative IPC: 0.16484 (Simulation time: 0 hr 6 min 41 sec) 
Heartbeat CPU  3 instructions:   54000001 cycles:   56051197 heartbeat IPC: 0.11815 cumulative IPC: 0.11862 (Simulation time: 0 hr 6 min 47 sec) 
Heartbeat CPU  2 instructions:   61000000 cycles:   57063364 heartbeat IPC: 0.14928 cumulative IPC: 0.14947 (Simulation time: 0 hr 6 min 48 sec) 
Heartbeat CPU  0 instructions:   59000000 cycles:   58179581 heartbeat IPC: 0.16299 cumulative IPC: 0.16453 (Simulation time: 0 hr 6 min 50 sec) 
Heartbeat CPU  1 instructions:   63000002 cycles:   58267013 heartbeat IPC: 0.15106 cumulative IPC: 0.15147 (Simulation time: 0 hr 6 min 50 sec) 
Heartbeat CPU  2 instructions:   62000002 cycles:   63724767 heartbeat IPC: 0.15012 cumulative IPC: 0.14957 (Simulation time: 0 hr 6 min 58 sec) 
Heartbeat CPU  0 instructions:   60000000 cycles:   64282087 heartbeat IPC: 0.16387 cumulative IPC: 0.16443 (Simulation time: 0 hr 6 min 59 sec) 
Heartbeat CPU  3 instructions:   55000001 cycles:   64546847 heartbeat IPC: 0.11771 cumulative IPC: 0.11844 (Simulation time: 0 hr 6 min 59 sec) 
Heartbeat CPU  1 instructions:   64000000 cycles:   64836067 heartbeat IPC: 0.15223 cumulative IPC: 0.15159 (Simulation time: 0 hr 7 min 0 sec) 
Heartbeat CPU  0 instructions:   61000000 cycles:   70327150 heartbeat IPC: 0.16542 cumulative IPC: 0.16456 (Simulation time: 0 hr 7 min 8 sec) 
Heartbeat CPU  2 instructions:   63000000 cycles:   70445137 heartbeat IPC: 0.14880 cumulative IPC: 0.14947 (Simulation time: 0 hr 7 min 8 sec) 
Heartbeat CPU  1 instructions:   65000003 cycles:   71409661 heartbeat IPC: 0.15212 cumulative IPC: 0.15166 (Simulation time: 0 hr 7 min 9 sec) 
Heartbeat CPU  3 instructions:   56000000 cycles:   73036554 heartbeat IPC: 0.11779 cumulative IPC: 0.11833 (Simulation time: 0 hr 7 min 12 sec) 
Heartbeat CPU  0 instructions:   62000001 cycles:   76502174 heartbeat IPC: 0.16194 cumulative IPC: 0.16426 (Simulation time: 0 hr 7 min 17 sec) 
Heartbeat CPU  2 instructions:   64000000 cycles:   77201505 heartbeat IPC: 0.14801 cumulative IPC: 0.14929 (Simulation time: 0 hr 7 min 18 sec) 
Heartbeat CPU  1 instructions:   66000001 cycles:   78065266 heartbeat IPC: 0.15025 cumulative IPC: 0.15149 (Simulation time: 0 hr 7 min 19 sec) 
Heartbeat CPU  3 instructions:   57000003 cycles:   81752754 heartbeat IPC: 0.11473 cumulative IPC: 0.11780 (Simulation time: 0 hr 7 min 25 sec) 
Heartbeat CPU  0 instructions:   63000001 cycles:   82263878 heartbeat IPC: 0.17356 cumulative IPC: 0.16515 (Simulation time: 0 hr 7 min 25 sec) 
Heartbeat CPU  2 instructions:   65000002 cycles:   83912666 heartbeat IPC: 0.14901 cumulative IPC: 0.14926 (Simulation time: 0 hr 7 min 28 sec) 
Heartbeat CPU  1 instructions:   67000001 cycles:   84787040 heartbeat IPC: 0.14877 cumulative IPC: 0.15120 (Simulation time: 0 hr 7 min 29 sec) 
Heartbeat CPU  0 instructions:   64000000 cycles:   89776023 heartbeat IPC: 0.13312 cumulative IPC: 0.16158 (Simulation time: 0 hr 7 min 36 sec) 
Heartbeat CPU  3 instructions:   58000002 cycles:   90273312 heartbeat IPC: 0.11736 cumulative IPC: 0.11775 (Simulation time: 0 hr 7 min 37 sec) 
Heartbeat CPU  2 instructions:   66000000 cycles:   90674100 heartbeat IPC: 0.14790 cumulative IPC: 0.14912 (Simulation time: 0 hr 7 min 37 sec) 
Heartbeat CPU  1 instructions:   68000000 cycles:   91501393 heartbeat IPC: 0.14893 cumulative IPC: 0.15098 (Simulation time: 0 hr 7 min 38 sec) 
Heartbeat CPU  0 instructions:   65000000 cycles:   95382743 heartbeat IPC: 0.17836 cumulative IPC: 0.16287 (Simulation time: 0 hr 7 min 44 sec) 
Heartbeat CPU  2 instructions:   67000000 cycles:   97417743 heartbeat IPC: 0.14829 cumulative IPC: 0.14905 (Simulation time: 0 hr 7 min 48 sec) 
Heartbeat CPU  1 instructions:   69000003 cycles:   98257895 heartbeat IPC: 0.14801 cumulative IPC: 0.15072 (Simulation time: 0 hr 7 min 49 sec) 
Heartbeat CPU  3 instructions:   59000003 cycles:   98836420 heartbeat IPC: 0.11678 cumulative IPC: 0.11764 (Simulation time: 0 hr 7 min 50 sec) 
Heartbeat CPU  0 instructions:   66000001 cycles:  100464953 heartbeat IPC: 0.19676 cumulative IPC: 0.16508 (Simulation time: 0 hr 7 min 52 sec) 
Heartbeat CPU  2 instructions:   68000000 cycles:  104182657 heartbeat IPC: 0.14782 cumulative IPC: 0.14894 (Simulation time: 0 hr 7 min 58 sec) 
Heartbeat CPU  1 instructions:   70000002 cycles:  105014368 heartbeat IPC: 0.14801 cumulative IPC: 0.15049 (Simulation time: 0 hr 7 min 59 sec) 
Heartbeat CPU  3 instructions:   60000000 cycles:  105126377 heartbeat IPC: 0.15898 cumulative IPC: 0.12078 (Simulation time: 0 hr 7 min 59 sec) 
Heartbeat CPU  0 instructions:   67000003 cycles:  107991224 heartbeat IPC: 0.13287 cumulative IPC: 0.16225 (Simulation time: 0 hr 8 min 4 sec) 
Heartbeat CPU  3 instructions:   61000001 cycles:  109856220 heartbeat IPC: 0.21142 cumulative IPC: 0.12568 (Simulation time: 0 hr 8 min 7 sec) 
Heartbeat CPU  2 instructions:   69000000 cycles:  110921990 heartbeat IPC: 0.14838 cumulative IPC: 0.14890 (Simulation time: 0 hr 8 min 9 sec) 
Heartbeat CPU  0 instructions:   68000000 cycles:  111021851 heartbeat IPC: 0.32996 cumulative IPC: 0.16798 (Simulation time: 0 hr 8 min 9 sec) 
Heartbeat CPU  1 instructions:   71000003 cycles:  111732389 heartbeat IPC: 0.14885 cumulative IPC: 0.15037 (Simulation time: 0 hr 8 min 10 sec) 
Heartbeat CPU  3 instructions:   62000003 cycles:  116968857 heartbeat IPC: 0.14060 cumulative IPC: 0.12680 (Simulation time: 0 hr 8 min 18 sec) 
Heartbeat CPU  2 instructions:   70000000 cycles:  117667034 heartbeat IPC: 0.14826 cumulative IPC: 0.14886 (Simulation time: 0 hr 8 min 19 sec) 
Heartbeat CPU  1 instructions:   72000000 cycles:  118450263 heartbeat IPC: 0.14886 cumulative IPC: 0.15027 (Simulation time: 0 hr 8 min 20 sec) 
Heartbeat CPU  0 instructions:   69000003 cycles:  118555526 heartbeat IPC: 0.13274 cumulative IPC: 0.16522 (Simulation time: 0 hr 8 min 20 sec) 
Heartbeat CPU  0 instructions:   70000001 cycles:  123446969 heartbeat IPC: 0.20444 cumulative IPC: 0.16712 (Simulation time: 0 hr 8 min 28 sec) 
Heartbeat CPU  2 instructions:   71000001 cycles:  124426042 heartbeat IPC: 0.14795 cumulative IPC: 0.14880 (Simulation time: 0 hr 8 min 29 sec) 
Heartbeat CPU  1 instructions:   73000001 cycles:  125139033 heartbeat IPC: 0.14950 cumulative IPC: 0.15022 (Simulation time: 0 hr 8 min 30 sec) 
Heartbeat CPU  3 instructions:   63000000 cycles:  125243089 heartbeat IPC: 0.12086 cumulative IPC: 0.12632 (Simulation time: 0 hr 8 min 30 sec) 
Heartbeat CPU  0 instructions:   71000001 cycles:  129089395 heartbeat IPC: 0.17723 cumulative IPC: 0.16765 (Simulation time: 0 hr 8 min 36 sec) 
Heartbeat CPU  2 instructions:   72000000 cycles:  131122134 heartbeat IPC: 0.14934 cumulative IPC: 0.14883 (Simulation time: 0 hr 8 min 39 sec) 
Heartbeat CPU  1 instructions:   74000003 cycles:  131840874 heartbeat IPC: 0.14921 cumulative IPC: 0.15015 (Simulation time: 0 hr 8 min 40 sec) 
Heartbeat CPU  3 instructions:   64000000 cycles:  133547512 heartbeat IPC: 0.12042 cumulative IPC: 0.12588 (Simulation time: 0 hr 8 min 42 sec) 
Heartbeat CPU  0 instructions:   72000000 cycles:  136456959 heartbeat IPC: 0.13573 cumulative IPC: 0.16559 (Simulation time: 0 hr 8 min 46 sec) 
Heartbeat CPU  2 instructions:   73000002 cycles:  137826131 heartbeat IPC: 0.14917 cumulative IPC: 0.14885 (Simulation time: 0 hr 8 min 49 sec) 
Heartbeat CPU  1 instructions:   75000003 cycles:  138500694 heartbeat IPC: 0.15015 cumulative IPC: 0.15015 (Simulation time: 0 hr 8 min 50 sec) 
Heartbeat CPU  0 instructions:   73000003 cycles:  139603799 heartbeat IPC: 0.31778 cumulative IPC: 0.16967 (Simulation time: 0 hr 8 min 52 sec) 
Heartbeat CPU  3 instructions:   65000003 cycles:  141897417 heartbeat IPC: 0.11976 cumulative IPC: 0.12545 (Simulation time: 0 hr 8 min 55 sec) 
Heartbeat CPU  2 instructions:   74000001 cycles:  144525165 heartbeat IPC: 0.14928 cumulative IPC: 0.14887 (Simulation time: 0 hr 8 min 59 sec) 
Heartbeat CPU  1 instructions:   76000000 cycles:  145187744 heartbeat IPC: 0.14954 cumulative IPC: 0.15012 (Simulation time: 0 hr 9 min 0 sec) 
Heartbeat CPU  0 instructions:   74000002 cycles:  147115164 heartbeat IPC: 0.13313 cumulative IPC: 0.16747 (Simulation time: 0 hr 9 min 2 sec) 
Heartbeat CPU  3 instructions:   66000003 cycles:  150233027 heartbeat IPC: 0.11997 cumulative IPC: 0.12510 (Simulation time: 0 hr 9 min 7 sec) 
Heartbeat CPU  0 instructions:   75000003 cycles:  150896612 heartbeat IPC: 0.26445 cumulative IPC: 0.17033 (Simulation time: 0 hr 9 min 8 sec) 
Heartbeat CPU  2 instructions:   75000002 cycles:  151250214 heartbeat IPC: 0.14870 cumulative IPC: 0.14886 (Simulation time: 0 hr 9 min 9 sec) 
Heartbeat CPU  1 instructions:   77000000 cycles:  151920939 heartbeat IPC: 0.14852 cumulative IPC: 0.15004 (Simulation time: 0 hr 9 min 10 sec) 
Heartbeat CPU  0 instructions:   76000000 cycles:  156414734 heartbeat IPC: 0.18122 cumulative IPC: 0.17077 (Simulation time: 0 hr 9 min 17 sec) 
Heartbeat CPU  2 instructions:   76000000 cycles:  157941170 heartbeat IPC: 0.14946 cumulative IPC: 0.14889 (Simulation time: 0 hr 9 min 19 sec) 
Heartbeat CPU  3 instructions:   67000003 cycles:  158609245 heartbeat IPC: 0.11939 cumulative IPC: 0.12474 (Simulation time: 0 hr 9 min 20 sec) 
Heartbeat CPU  1 instructions:   78000000 cycles:  158680211 heartbeat IPC: 0.14794 cumulative IPC: 0.14993 (Simulation time: 0 hr 9 min 20 sec) 
Heartbeat CPU  0 instructions:   77000003 cycles:  162241856 heartbeat IPC: 0.17161 cumulative IPC: 0.17081 (Simulation time: 0 hr 9 min 25 sec) 
Heartbeat CPU  2 instructions:   77000001 cycles:  164655943 heartbeat IPC: 0.14893 cumulative IPC: 0.14889 (Simulation time: 0 hr 9 min 29 sec) 
Heartbeat CPU  1 instructions:   79000003 cycles:  165321332 heartbeat IPC: 0.15058 cumulative IPC: 0.14996 (Simulation time: 0 hr 9 min 30 sec) 
Heartbeat CPU  3 instructions:   68000000 cycles:  166938190 heartbeat IPC: 0.12006 cumulative IPC: 0.12448 (Simulation time: 0 hr 9 min 32 sec) 
Heartbeat CPU  0 instructions:   78000003 cycles:  167871793 heartbeat IPC: 0.17762 cumulative IPC: 0.17107 (Simulation time: 0 hr 9 min 33 sec) 
Heartbeat CPU  2 instructions:   78000001 cycles:  171363950 heartbeat IPC: 0.14908 cumulative IPC: 0.14890 (Simulation time: 0 hr 9 min 38 sec) 
Heartbeat CPU  1 instructions:   80000000 cycles:  171966242 heartbeat IPC: 0.15049 cumulative IPC: 0.14999 (Simulation time: 0 hr 9 min 39 sec) 
Heartbeat CPU  0 instructions:   79000001 cycles:  175255052 heartbeat IPC: 0.13544 cumulative IPC: 0.16935 (Simulation time: 0 hr 9 min 44 sec) 
Heartbeat CPU  3 instructions:   69000001 cycles:  175347916 heartbeat IPC: 0.11891 cumulative IPC: 0.12417 (Simulation time: 0 hr 9 min 44 sec) 
Heartbeat CPU  2 instructions:   79000001 cycles:  178073413 heartbeat IPC: 0.14904 cumulative IPC: 0.14891 (Simulation time: 0 hr 9 min 48 sec) 
Heartbeat CPU  1 instructions:   81000000 cycles:  178532781 heartbeat IPC: 0.15229 cumulative IPC: 0.15008 (Simulation time: 0 hr 9 min 48 sec) 
Heartbeat CPU  0 instructions:   80000000 cycles:  183432907 heartbeat IPC: 0.12228 cumulative IPC: 0.16696 (Simulation time: 0 hr 9 min 55 sec) 
Heartbeat CPU  3 instructions:   70000003 cycles:  183756550 heartbeat IPC: 0.11893 cumulative IPC: 0.12390 (Simulation time: 0 hr 9 min 56 sec) 
Heartbeat CPU  2 instructions:   80000000 cycles:  184792270 heartbeat IPC: 0.14883 cumulative IPC: 0.14891 (Simulation time: 0 hr 9 min 57 sec) 
Heartbeat CPU  1 instructions:   82000001 cycles:  185077477 heartbeat IPC: 0.15280 cumulative IPC: 0.15019 (Simulation time: 0 hr 9 min 58 sec) 
Heartbeat CPU  2 instructions:   81000000 cycles:  191538183 heartbeat IPC: 0.14824 cumulative IPC: 0.14888 (Simulation time: 0 hr 10 min 7 sec) 
Heartbeat CPU  1 instructions:   83000003 cycles:  191614215 heartbeat IPC: 0.15298 cumulative IPC: 0.15030 (Simulation time: 0 hr 10 min 7 sec) 
Heartbeat CPU  0 instructions:   81000001 cycles:  191641225 heartbeat IPC: 0.12183 cumulative IPC: 0.16477 (Simulation time: 0 hr 10 min 7 sec) 
Heartbeat CPU  3 instructions:   71000001 cycles:  192520082 heartbeat IPC: 0.11411 cumulative IPC: 0.12339 (Simulation time: 0 hr 10 min 8 sec) 
Heartbeat CPU  1 instructions:   84000000 cycles:  198194192 heartbeat IPC: 0.15198 cumulative IPC: 0.15036 (Simulation time: 0 hr 10 min 16 sec) 
Heartbeat CPU  2 instructions:   82000002 cycles:  198231831 heartbeat IPC: 0.14940 cumulative IPC: 0.14890 (Simulation time: 0 hr 10 min 16 sec) 
Heartbeat CPU  0 instructions:   82000001 cycles:  199747317 heartbeat IPC: 0.12336 cumulative IPC: 0.16288 (Simulation time: 0 hr 10 min 18 sec) 
Heartbeat CPU  3 instructions:   72000000 cycles:  200904752 heartbeat IPC: 0.11927 cumulative IPC: 0.12320 (Simulation time: 0 hr 10 min 20 sec) 
Heartbeat CPU  1 instructions:   85000001 cycles:  204763589 heartbeat IPC: 0.15222 cumulative IPC: 0.15043 (Simulation time: 0 hr 10 min 25 sec) 
Heartbeat CPU  2 instructions:   83000002 cycles:  204984473 heartbeat IPC: 0.14809 cumulative IPC: 0.14887 (Simulation time: 0 hr 10 min 25 sec) 
Heartbeat CPU  0 instructions:   83000000 cycles:  207976912 heartbeat IPC: 0.12151 cumulative IPC: 0.16105 (Simulation time: 0 hr 10 min 30 sec) 
Heartbeat CPU  3 instructions:   73000001 cycles:  209360217 heartbeat IPC: 0.11827 cumulative IPC: 0.12298 (Simulation time: 0 hr 10 min 32 sec) 
Heartbeat CPU  1 instructions:   86000001 cycles:  211308750 heartbeat IPC: 0.15278 cumulative IPC: 0.15051 (Simulation time: 0 hr 10 min 34 sec) 
Heartbeat CPU  2 instructions:   84000000 cycles:  211703507 heartbeat IPC: 0.14883 cumulative IPC: 0.14887 (Simulation time: 0 hr 10 min 35 sec) 
Heartbeat CPU  0 instructions:   84000000 cycles:  216112052 heartbeat IPC: 0.12292 cumulative IPC: 0.15945 (Simulation time: 0 hr 10 min 41 sec) 
Heartbeat CPU  3 instructions:   74000002 cycles:  217860240 heartbeat IPC: 0.11765 cumulative IPC: 0.12274 (Simulation time: 0 hr 10 min 43 sec) 
Heartbeat CPU  1 instructions:   87000001 cycles:  217907872 heartbeat IPC: 0.15154 cumulative IPC: 0.15055 (Simulation time: 0 hr 10 min 43 sec) 
Heartbeat CPU  2 instructions:   85000000 cycles:  218475385 heartbeat IPC: 0.14767 cumulative IPC: 0.14883 (Simulation time: 0 hr 10 min 44 sec) 
Heartbeat CPU  3 instructions:   75000002 cycles:  222885232 heartbeat IPC: 0.19901 cumulative IPC: 0.12465 (Simulation time: 0 hr 10 min 51 sec) 
Heartbeat CPU  0 instructions:   85000002 cycles:  224403873 heartbeat IPC: 0.12060 cumulative IPC: 0.15785 (Simulation time: 0 hr 10 min 54 sec) 
Heartbeat CPU  1 instructions:   88000000 cycles:  224477986 heartbeat IPC: 0.15220 cumulative IPC: 0.15060 (Simulation time: 0 hr 10 min 54 sec) 
Heartbeat CPU  2 instructions:   86000000 cycles:  225195225 heartbeat IPC: 0.14881 cumulative IPC: 0.14883 (Simulation time: 0 hr 10 min 55 sec) 
Heartbeat CPU  3 instructions:   76000000 cycles:  227915084 heartbeat IPC: 0.19881 cumulative IPC: 0.12647 (Simulation time: 0 hr 10 min 59 sec) 
Heartbeat CPU  1 instructions:   89000000 cycles:  231013654 heartbeat IPC: 0.15301 cumulative IPC: 0.15068 (Simulation time: 0 hr 11 min 3 sec) 
Heartbeat CPU  2 instructions:   87000003 cycles:  231959451 heartbeat IPC: 0.14784 cumulative IPC: 0.14879 (Simulation time: 0 hr 11 min 5 sec) 
Heartbeat CPU  0 instructions:   86000003 cycles:  232635032 heartbeat IPC: 0.12149 cumulative IPC: 0.15643 (Simulation time: 0 hr 11 min 6 sec) 
Heartbeat CPU  3 instructions:   77000002 cycles:  235866404 heartbeat IPC: 0.12577 cumulative IPC: 0.12644 (Simulation time: 0 hr 11 min 10 sec) 
Heartbeat CPU  1 instructions:   90000000 cycles:  237551045 heartbeat IPC: 0.15297 cumulative IPC: 0.15075 (Simulation time: 0 hr 11 min 12 sec) 
Heartbeat CPU  2 instructions:   88000000 cycles:  238656662 heartbeat IPC: 0.14932 cumulative IPC: 0.14881 (Simulation time: 0 hr 11 min 14 sec) 
Heartbeat CPU  0 instructions:   87000000 cycles:  240892664 heartbeat IPC: 0.12110 cumulative IPC: 0.15510 (Simulation time: 0 hr 11 min 17 sec) 
Heartbeat CPU  1 instructions:   91000002 cycles:  244157616 heartbeat IPC: 0.15136 cumulative IPC: 0.15076 (Simulation time: 0 hr 11 min 22 sec) 
Heartbeat CPU  3 instructions:   78000000 cycles:  244223620 heartbeat IPC: 0.11966 cumulative IPC: 0.12619 (Simulation time: 0 hr 11 min 22 sec) 
Heartbeat CPU  2 instructions:   89000000 cycles:  245402995 heartbeat IPC: 0.14823 cumulative IPC: 0.14879 (Simulation time: 0 hr 11 min 23 sec) 
Heartbeat CPU  0 instructions:   88000000 cycles:  249186734 heartbeat IPC: 0.12057 cumulative IPC: 0.15383 (Simulation time: 0 hr 11 min 29 sec) 
Heartbeat CPU  1 instructions:   92000000 cycles:  250773681 heartbeat IPC: 0.15115 cumulative IPC: 0.15077 (Simulation time: 0 hr 11 min 31 sec) 
Heartbeat CPU  2 instructions:   90000000 cycles:  252199343 heartbeat IPC: 0.14714 cumulative IPC: 0.14874 (Simulation time: 0 hr 11 min 33 sec) 
Heartbeat CPU  3 instructions:   79000000 cycles:  252589810 heartbeat IPC: 0.11953 cumulative IPC: 0.12595 (Simulation time: 0 hr 11 min 33 sec) 
Heartbeat CPU  1 instructions:   93000003 cycles:  257341099 heartbeat IPC: 0.15227 cumulative IPC: 0.15082 (Simulation time: 0 hr 11 min 40 sec) 
Heartbeat CPU  0 instructions:   89000002 cycles:  257512279 heartbeat IPC: 0.12011 cumulative IPC: 0.15264 (Simulation time: 0 hr 11 min 40 sec) 
Heartbeat CPU  2 instructions:   91000000 cycles:  258972934 heartbeat IPC: 0.14763 cumulative IPC: 0.14871 (Simulation time: 0 hr 11 min 42 sec) 
Heartbeat CPU  3 instructions:   80000000 cycles:  261003416 heartbeat IPC: 0.11886 cumulative IPC: 0.12570 (Simulation time: 0 hr 11 min 45 sec) 
Heartbeat CPU  1 instructions:   94000001 cycles:  263958386 heartbeat IPC: 0.15112 cumulative IPC: 0.15082 (Simulation time: 0 hr 11 min 49 sec) 
Heartbeat CPU  2 instructions:   92000000 cycles:  265780239 heartbeat IPC: 0.14690 cumulative IPC: 0.14866 (Simulation time: 0 hr 11 min 52 sec) 
Heartbeat CPU  0 instructions:   90000000 cycles:  266182228 heartbeat IPC: 0.11534 cumulative IPC: 0.15131 (Simulation time: 0 hr 11 min 52 sec) 
Heartbeat CPU  3 instructions:   81000001 cycles:  269442308 heartbeat IPC: 0.11850 cumulative IPC: 0.12545 (Simulation time: 0 hr 11 min 57 sec) 
Heartbeat CPU  1 instructions:   95000002 cycles:  270563334 heartbeat IPC: 0.15140 cumulative IPC: 0.15084 (Simulation time: 0 hr 11 min 58 sec) 
Heartbeat CPU  2 instructions:   93000003 cycles:  272581579 heartbeat IPC: 0.14703 cumulative IPC: 0.14862 (Simulation time: 0 hr 12 min 1 sec) 
Heartbeat CPU  0 instructions:   91000000 cycles:  274476908 heartbeat IPC: 0.12056 cumulative IPC: 0.15030 (Simulation time: 0 hr 12 min 4 sec) 
Heartbeat CPU  1 instructions:   96000000 cycles:  277183413 heartbeat IPC: 0.15106 cumulative IPC: 0.15085 (Simulation time: 0 hr 12 min 8 sec) 
Heartbeat CPU  3 instructions:   82000000 cycles:  277873407 heartbeat IPC: 0.11861 cumulative IPC: 0.12522 (Simulation time: 0 hr 12 min 8 sec) 
Heartbeat CPU  2 instructions:   94000003 cycles:  279398542 heartbeat IPC: 0.14669 cumulative IPC: 0.14857 (Simulation time: 0 hr 12 min 11 sec) 
Heartbeat CPU  0 instructions:   92000000 cycles:  282888753 heartbeat IPC: 0.11888 cumulative IPC: 0.14929 (Simulation time: 0 hr 12 min 15 sec) 
Heartbeat CPU  1 instructions:   97000000 cycles:  283790198 heartbeat IPC: 0.15136 cumulative IPC: 0.15086 (Simulation time: 0 hr 12 min 17 sec) 
Heartbeat CPU  2 instructions:   95000001 cycles:  286226086 heartbeat IPC: 0.14647 cumulative IPC: 0.14851 (Simulation time: 0 hr 12 min 20 sec) 
Heartbeat CPU  3 instructions:   83000002 cycles:  286312199 heartbeat IPC: 0.11850 cumulative IPC: 0.12501 (Simulation time: 0 hr 12 min 20 sec) 
Heartbeat CPU  1 instructions:   98000000 cycles:  290393655 heartbeat IPC: 0.15144 cumulative IPC: 0.15087 (Simulation time: 0 hr 12 min 26 sec) 
Heartbeat CPU  0 instructions:   93000003 cycles:  291304623 heartbeat IPC: 0.11882 cumulative IPC: 0.14833 (Simulation time: 0 hr 12 min 27 sec) 
Heartbeat CPU  2 instructions:   96000000 cycles:  293026269 heartbeat IPC: 0.14705 cumulative IPC: 0.14847 (Simulation time: 0 hr 12 min 30 sec) 
Heartbeat CPU  3 instructions:   84000000 cycles:  294802289 heartbeat IPC: 0.11778 cumulative IPC: 0.12478 (Simulation time: 0 hr 12 min 32 sec) 
Heartbeat CPU  1 instructions:   99000001 cycles:  296947864 heartbeat IPC: 0.15257 cumulative IPC: 0.15091 (Simulation time: 0 hr 12 min 35 sec) 
Heartbeat CPU  0 instructions:   94000000 cycles:  298067482 heartbeat IPC: 0.14787 cumulative IPC: 0.14832 (Simulation time: 0 hr 12 min 37 sec) 
Heartbeat CPU  2 instructions:   97000002 cycles:  299814549 heartbeat IPC: 0.14731 cumulative IPC: 0.14845 (Simulation time: 0 hr 12 min 40 sec) 
Heartbeat CPU  0 instructions:   95000002 cycles:  302676407 heartbeat IPC: 0.21697 cumulative IPC: 0.14945 (Simulation time: 0 hr 12 min 44 sec) 
Heartbeat CPU  3 instructions:   85000000 cycles:  303267474 heartbeat IPC: 0.11813 cumulative IPC: 0.12458 (Simulation time: 0 hr 12 min 45 sec) 
*** Reached end of trace for Core: 1 Repeating trace: /data3/CLOUD9/traces/cloud9_phase1_core1.trace.xz
Heartbeat CPU  1 instructions:  100000000 cycles:  303530417 heartbeat IPC: 0.15192 cumulative IPC: 0.15094 (Simulation time: 0 hr 12 min 46 sec) 
Heartbeat CPU  2 instructions:   98000001 cycles:  306595449 heartbeat IPC: 0.14747 cumulative IPC: 0.14842 (Simulation time: 0 hr 12 min 50 sec) 
Heartbeat CPU  0 instructions:   96000000 cycles:  309271840 heartbeat IPC: 0.15162 cumulative IPC: 0.14950 (Simulation time: 0 hr 12 min 54 sec) 
Heartbeat CPU  1 instructions:  101000000 cycles:  310175058 heartbeat IPC: 0.15050 cumulative IPC: 0.15093 (Simulation time: 0 hr 12 min 55 sec) 
Heartbeat CPU  3 instructions:   86000000 cycles:  312028156 heartbeat IPC: 0.11415 cumulative IPC: 0.12427 (Simulation time: 0 hr 12 min 58 sec) 
Heartbeat CPU  2 instructions:   99000003 cycles:  313343996 heartbeat IPC: 0.14818 cumulative IPC: 0.14842 (Simulation time: 0 hr 12 min 59 sec) 
Heartbeat CPU  1 instructions:  102000000 cycles:  316794301 heartbeat IPC: 0.15107 cumulative IPC: 0.15093 (Simulation time: 0 hr 13 min 4 sec) 
Heartbeat CPU  0 instructions:   97000001 cycles:  317575014 heartbeat IPC: 0.12044 cumulative IPC: 0.14868 (Simulation time: 0 hr 13 min 5 sec) 
*** Reached end of trace for Core: 2 Repeating trace: /data3/CLOUD9/traces/cloud9_phase1_core2.trace.xz
Heartbeat CPU  2 instructions:  100000000 cycles:  320115859 heartbeat IPC: 0.14767 cumulative IPC: 0.14840 (Simulation time: 0 hr 13 min 9 sec) 
Heartbeat CPU  3 instructions:   87000001 cycles:  320566425 heartbeat IPC: 0.11712 cumulative IPC: 0.12406 (Simulation time: 0 hr 13 min 10 sec) 
Heartbeat CPU  1 instructions:  103000000 cycles:  323396244 heartbeat IPC: 0.15147 cumulative IPC: 0.15094 (Simulation time: 0 hr 13 min 14 sec) 
Heartbeat CPU  0 instructions:   98000001 cycles:  325856440 heartbeat IPC: 0.12075 cumulative IPC: 0.14792 (Simulation time: 0 hr 13 min 17 sec) 
Heartbeat CPU  2 instructions:  101000002 cycles:  326574013 heartbeat IPC: 0.15484 cumulative IPC: 0.14854 (Simulation time: 0 hr 13 min 18 sec) 
Heartbeat CPU  3 instructions:   88000000 cycles:  329145778 heartbeat IPC: 0.11656 cumulative IPC: 0.12385 (Simulation time: 0 hr 13 min 22 sec) 
Heartbeat CPU  1 instructions:  104000000 cycles:  330004784 heartbeat IPC: 0.15132 cumulative IPC: 0.15095 (Simulation time: 0 hr 13 min 23 sec) 
Heartbeat CPU  2 instructions:  102000002 cycles:  333018785 heartbeat IPC: 0.15516 cumulative IPC: 0.14867 (Simulation time: 0 hr 13 min 27 sec) 
Heartbeat CPU  0 instructions:   99000000 cycles:  334198851 heartbeat IPC: 0.11987 cumulative IPC: 0.14717 (Simulation time: 0 hr 13 min 29 sec) 
Heartbeat CPU  1 instructions:  105000000 cycles:  336592757 heartbeat IPC: 0.15179 cumulative IPC: 0.15097 (Simulation time: 0 hr 13 min 32 sec) 
Heartbeat CPU  3 instructions:   89000000 cycles:  336734591 heartbeat IPC: 0.13177 cumulative IPC: 0.12404 (Simulation time: 0 hr 13 min 33 sec) 
Heartbeat CPU  2 instructions:  103000000 cycles:  339465804 heartbeat IPC: 0.15511 cumulative IPC: 0.14881 (Simulation time: 0 hr 13 min 37 sec) 
Heartbeat CPU  3 instructions:   90000002 cycles:  341426067 heartbeat IPC: 0.21315 cumulative IPC: 0.12535 (Simulation time: 0 hr 13 min 40 sec) 
*** Reached end of trace for Core: 0 Repeating trace: /data3/CLOUD9/traces/cloud9_phase1_core0.trace.xz
Heartbeat CPU  0 instructions:  100000000 cycles:  342563437 heartbeat IPC: 0.11955 cumulative IPC: 0.14645 (Simulation time: 0 hr 13 min 42 sec) 
Heartbeat CPU  1 instructions:  106000003 cycles:  343203528 heartbeat IPC: 0.15127 cumulative IPC: 0.15097 (Simulation time: 0 hr 13 min 43 sec) 
Heartbeat CPU  2 instructions:  104000000 cycles:  345946184 heartbeat IPC: 0.15431 cumulative IPC: 0.14892 (Simulation time: 0 hr 13 min 48 sec) 
Heartbeat CPU  3 instructions:   91000000 cycles:  347467680 heartbeat IPC: 0.16552 cumulative IPC: 0.12610 (Simulation time: 0 hr 13 min 50 sec) 
Heartbeat CPU  0 instructions:  101000002 cycles:  347573735 heartbeat IPC: 0.19959 cumulative IPC: 0.14727 (Simulation time: 0 hr 13 min 51 sec) 
Heartbeat CPU  1 instructions:  107000002 cycles:  349811849 heartbeat IPC: 0.15132 cumulative IPC: 0.15098 (Simulation time: 0 hr 13 min 54 sec) 
Heartbeat CPU  0 instructions:  102000000 cycles:  352107213 heartbeat IPC: 0.22058 cumulative IPC: 0.14828 (Simulation time: 0 hr 13 min 58 sec) 
Heartbeat CPU  2 instructions:  105000001 cycles:  352529630 heartbeat IPC: 0.15190 cumulative IPC: 0.14898 (Simulation time: 0 hr 13 min 59 sec) 
Heartbeat CPU  3 instructions:   92000000 cycles:  355831475 heartbeat IPC: 0.11956 cumulative IPC: 0.12594 (Simulation time: 0 hr 14 min 4 sec) 
Heartbeat CPU  1 instructions:  108000000 cycles:  356428360 heartbeat IPC: 0.15114 cumulative IPC: 0.15098 (Simulation time: 0 hr 14 min 5 sec) 
Heartbeat CPU  0 instructions:  103000001 cycles:  356790962 heartbeat IPC: 0.21350 cumulative IPC: 0.14919 (Simulation time: 0 hr 14 min 6 sec) 
Heartbeat CPU  2 instructions:  106000003 cycles:  359066495 heartbeat IPC: 0.15298 cumulative IPC: 0.14905 (Simulation time: 0 hr 14 min 9 sec) 
Heartbeat CPU  0 instructions:  104000000 cycles:  361711092 heartbeat IPC: 0.20325 cumulative IPC: 0.14997 (Simulation time: 0 hr 14 min 14 sec) 
Heartbeat CPU  1 instructions:  109000003 cycles:  363046232 heartbeat IPC: 0.15111 cumulative IPC: 0.15099 (Simulation time: 0 hr 14 min 16 sec) 
Heartbeat CPU  3 instructions:   93000001 cycles:  364218878 heartbeat IPC: 0.11923 cumulative IPC: 0.12577 (Simulation time: 0 hr 14 min 18 sec) 
Heartbeat CPU  2 instructions:  107000003 cycles:  365659418 heartbeat IPC: 0.15168 cumulative IPC: 0.14910 (Simulation time: 0 hr 14 min 20 sec) 
Heartbeat CPU  0 instructions:  105000000 cycles:  366861779 heartbeat IPC: 0.19415 cumulative IPC: 0.15063 (Simulation time: 0 hr 14 min 22 sec) 
Heartbeat CPU  1 instructions:  110000001 cycles:  369675714 heartbeat IPC: 0.15084 cumulative IPC: 0.15098 (Simulation time: 0 hr 14 min 26 sec) 
Heartbeat CPU  2 instructions:  108000000 cycles:  372190559 heartbeat IPC: 0.15311 cumulative IPC: 0.14918 (Simulation time: 0 hr 14 min 30 sec) 
Heartbeat CPU  3 instructions:   94000001 cycles:  372581366 heartbeat IPC: 0.11958 cumulative IPC: 0.12562 (Simulation time: 0 hr 14 min 31 sec) 
Heartbeat CPU  0 instructions:  106000003 cycles:  372746391 heartbeat IPC: 0.16994 cumulative IPC: 0.15096 (Simulation time: 0 hr 14 min 31 sec) 
Heartbeat CPU  1 instructions:  111000001 cycles:  376290017 heartbeat IPC: 0.15119 cumulative IPC: 0.15099 (Simulation time: 0 hr 14 min 37 sec) 
Heartbeat CPU  2 instructions:  109000001 cycles:  378740138 heartbeat IPC: 0.15268 cumulative IPC: 0.14924 (Simulation time: 0 hr 14 min 40 sec) 
Heartbeat CPU  0 instructions:  107000003 cycles:  379541120 heartbeat IPC: 0.14717 cumulative IPC: 0.15089 (Simulation time: 0 hr 14 min 42 sec) 
Heartbeat CPU  3 instructions:   95000000 cycles:  381013147 heartbeat IPC: 0.11860 cumulative IPC: 0.12546 (Simulation time: 0 hr 14 min 44 sec) 
Heartbeat CPU  1 instructions:  112000000 cycles:  382892229 heartbeat IPC: 0.15146 cumulative IPC: 0.15100 (Simulation time: 0 hr 14 min 47 sec) 
Heartbeat CPU  2 instructions:  110000000 cycles:  385252497 heartbeat IPC: 0.15355 cumulative IPC: 0.14932 (Simulation time: 0 hr 14 min 50 sec) 
Heartbeat CPU  0 instructions:  108000000 cycles:  386004120 heartbeat IPC: 0.15473 cumulative IPC: 0.15095 (Simulation time: 0 hr 14 min 51 sec) 
Heartbeat CPU  3 instructions:   96000000 cycles:  389442034 heartbeat IPC: 0.11864 cumulative IPC: 0.12530 (Simulation time: 0 hr 14 min 57 sec) 
Heartbeat CPU  1 instructions:  113000001 cycles:  389525712 heartbeat IPC: 0.15075 cumulative IPC: 0.15099 (Simulation time: 0 hr 14 min 57 sec) 
Heartbeat CPU  2 instructions:  111000002 cycles:  391837551 heartbeat IPC: 0.15186 cumulative IPC: 0.14937 (Simulation time: 0 hr 15 min 0 sec) 
Heartbeat CPU  0 instructions:  109000002 cycles:  392319586 heartbeat IPC: 0.15834 cumulative IPC: 0.15108 (Simulation time: 0 hr 15 min 1 sec) 
Heartbeat CPU  1 instructions:  114000001 cycles:  396155697 heartbeat IPC: 0.15083 cumulative IPC: 0.15099 (Simulation time: 0 hr 15 min 7 sec) 
Heartbeat CPU  3 instructions:   97000000 cycles:  397875177 heartbeat IPC: 0.11858 cumulative IPC: 0.12515 (Simulation time: 0 hr 15 min 9 sec) 
Heartbeat CPU  2 instructions:  112000000 cycles:  398422230 heartbeat IPC: 0.15187 cumulative IPC: 0.14941 (Simulation time: 0 hr 15 min 10 sec) 
Heartbeat CPU  0 instructions:  110000000 cycles:  398495094 heartbeat IPC: 0.16193 cumulative IPC: 0.15126 (Simulation time: 0 hr 15 min 10 sec) 
Heartbeat CPU  1 instructions:  115000003 cycles:  402777942 heartbeat IPC: 0.15101 cumulative IPC: 0.15099 (Simulation time: 0 hr 15 min 17 sec) 
Heartbeat CPU  0 instructions:  111000003 cycles:  404863495 heartbeat IPC: 0.15703 cumulative IPC: 0.15135 (Simulation time: 0 hr 15 min 20 sec) 
Heartbeat CPU  2 instructions:  113000000 cycles:  405007136 heartbeat IPC: 0.15186 cumulative IPC: 0.14945 (Simulation time: 0 hr 15 min 20 sec) 
Heartbeat CPU  3 instructions:   98000000 cycles:  406340197 heartbeat IPC: 0.11813 cumulative IPC: 0.12500 (Simulation time: 0 hr 15 min 22 sec) 
Heartbeat CPU  1 instructions:  116000000 cycles:  409383330 heartbeat IPC: 0.15139 cumulative IPC: 0.15100 (Simulation time: 0 hr 15 min 27 sec) 
Heartbeat CPU  0 instructions:  112000000 cycles:  410620848 heartbeat IPC: 0.17369 cumulative IPC: 0.15169 (Simulation time: 0 hr 15 min 29 sec) 
Heartbeat CPU  2 instructions:  114000002 cycles:  411643960 heartbeat IPC: 0.15067 cumulative IPC: 0.14947 (Simulation time: 0 hr 15 min 31 sec) 
Heartbeat CPU  3 instructions:   99000001 cycles:  414867941 heartbeat IPC: 0.11726 cumulative IPC: 0.12483 (Simulation time: 0 hr 15 min 36 sec) 
Heartbeat CPU  0 instructions:  113000001 cycles:  415817878 heartbeat IPC: 0.19242 cumulative IPC: 0.15222 (Simulation time: 0 hr 15 min 38 sec) 
Heartbeat CPU  1 instructions:  117000001 cycles:  416023079 heartbeat IPC: 0.15061 cumulative IPC: 0.15099 (Simulation time: 0 hr 15 min 38 sec) 
Heartbeat CPU  2 instructions:  115000003 cycles:  418262573 heartbeat IPC: 0.15109 cumulative IPC: 0.14950 (Simulation time: 0 hr 15 min 42 sec) 
Heartbeat CPU  0 instructions:  114000003 cycles:  421505164 heartbeat IPC: 0.17583 cumulative IPC: 0.15256 (Simulation time: 0 hr 15 min 47 sec) 
Heartbeat CPU  1 instructions:  118000000 cycles:  422637614 heartbeat IPC: 0.15118 cumulative IPC: 0.15099 (Simulation time: 0 hr 15 min 49 sec) 
*** Reached end of trace for Core: 3 Repeating trace: /data3/CLOUD9/traces/cloud9_phase1_core3.trace.xz
Heartbeat CPU  3 instructions:  100000000 cycles:  423351089 heartbeat IPC: 0.11788 cumulative IPC: 0.12468 (Simulation time: 0 hr 15 min 50 sec) 
Heartbeat CPU  2 instructions:  116000000 cycles:  424818506 heartbeat IPC: 0.15253 cumulative IPC: 0.14955 (Simulation time: 0 hr 15 min 52 sec) 
Heartbeat CPU  0 instructions:  115000003 cycles:  427217228 heartbeat IPC: 0.17507 cumulative IPC: 0.15288 (Simulation time: 0 hr 15 min 56 sec) 
Heartbeat CPU  1 instructions:  119000000 cycles:  429288747 heartbeat IPC: 0.15035 cumulative IPC: 0.15098 (Simulation time: 0 hr 15 min 59 sec) 
Heartbeat CPU  3 instructions:  101000000 cycles:  431123390 heartbeat IPC: 0.12866 cumulative IPC: 0.12476 (Simulation time: 0 hr 16 min 2 sec) 
Heartbeat CPU  2 instructions:  117000000 cycles:  431376433 heartbeat IPC: 0.15249 cumulative IPC: 0.14960 (Simulation time: 0 hr 16 min 2 sec) 
Heartbeat CPU  0 instructions:  116000000 cycles:  432983890 heartbeat IPC: 0.17341 cumulative IPC: 0.15317 (Simulation time: 0 hr 16 min 5 sec) 
Heartbeat CPU  1 instructions:  120000000 cycles:  435953341 heartbeat IPC: 0.15005 cumulative IPC: 0.15097 (Simulation time: 0 hr 16 min 10 sec) 
Heartbeat CPU  2 instructions:  118000001 cycles:  437921240 heartbeat IPC: 0.15279 cumulative IPC: 0.14965 (Simulation time: 0 hr 16 min 13 sec) 
Heartbeat CPU  0 instructions:  117000002 cycles:  439262097 heartbeat IPC: 0.15928 cumulative IPC: 0.15326 (Simulation time: 0 hr 16 min 15 sec) 
Heartbeat CPU  3 instructions:  102000002 cycles:  439280582 heartbeat IPC: 0.12259 cumulative IPC: 0.12472 (Simulation time: 0 hr 16 min 15 sec) 
Heartbeat CPU  1 instructions:  121000002 cycles:  442608143 heartbeat IPC: 0.15027 cumulative IPC: 0.15096 (Simulation time: 0 hr 16 min 20 sec) 
Heartbeat CPU  2 instructions:  119000003 cycles:  444466540 heartbeat IPC: 0.15278 cumulative IPC: 0.14969 (Simulation time: 0 hr 16 min 22 sec) 
Heartbeat CPU  0 instructions:  118000000 cycles:  447096477 heartbeat IPC: 0.12764 cumulative IPC: 0.15279 (Simulation time: 0 hr 16 min 26 sec) 
Heartbeat CPU  3 instructions:  103000000 cycles:  447398304 heartbeat IPC: 0.12319 cumulative IPC: 0.12469 (Simulation time: 0 hr 16 min 27 sec) 
Heartbeat CPU  1 instructions:  122000002 cycles:  449291077 heartbeat IPC: 0.14963 cumulative IPC: 0.15094 (Simulation time: 0 hr 16 min 30 sec) 
Heartbeat CPU  2 instructions:  120000000 cycles:  450977322 heartbeat IPC: 0.15359 cumulative IPC: 0.14975 (Simulation time: 0 hr 16 min 32 sec) 
Heartbeat CPU  0 instructions:  119000001 cycles:  455064556 heartbeat IPC: 0.12550 cumulative IPC: 0.15228 (Simulation time: 0 hr 16 min 38 sec) 
Heartbeat CPU  3 instructions:  104000000 cycles:  455613993 heartbeat IPC: 0.12172 cumulative IPC: 0.12463 (Simulation time: 0 hr 16 min 39 sec) 
Heartbeat CPU  1 instructions:  123000003 cycles:  455954506 heartbeat IPC: 0.15007 cumulative IPC: 0.15092 (Simulation time: 0 hr 16 min 39 sec) 
Heartbeat CPU  2 instructions:  121000003 cycles:  457495434 heartbeat IPC: 0.15342 cumulative IPC: 0.14981 (Simulation time: 0 hr 16 min 42 sec) 
Heartbeat CPU  1 instructions:  124000000 cycles:  462703011 heartbeat IPC: 0.14818 cumulative IPC: 0.15088 (Simulation time: 0 hr 16 min 49 sec) 
Heartbeat CPU  0 instructions:  120000000 cycles:  463492130 heartbeat IPC: 0.11866 cumulative IPC: 0.15164 (Simulation time: 0 hr 16 min 50 sec) 
Heartbeat CPU  3 instructions:  105000000 cycles:  463843704 heartbeat IPC: 0.12151 cumulative IPC: 0.12457 (Simulation time: 0 hr 16 min 51 sec) 
Heartbeat CPU  2 instructions:  122000002 cycles:  463984487 heartbeat IPC: 0.15411 cumulative IPC: 0.14987 (Simulation time: 0 hr 16 min 51 sec) 
Heartbeat CPU  1 instructions:  125000001 cycles:  469428089 heartbeat IPC: 0.14870 cumulative IPC: 0.15085 (Simulation time: 0 hr 16 min 59 sec) 
Heartbeat CPU  2 instructions:  123000001 cycles:  470521370 heartbeat IPC: 0.15298 cumulative IPC: 0.14992 (Simulation time: 0 hr 17 min 1 sec) 
Heartbeat CPU  0 instructions:  121000001 cycles:  471857409 heartbeat IPC: 0.11954 cumulative IPC: 0.15104 (Simulation time: 0 hr 17 min 3 sec) 
Heartbeat CPU  3 instructions:  106000001 cycles:  472119070 heartbeat IPC: 0.12084 cumulative IPC: 0.12450 (Simulation time: 0 hr 17 min 3 sec) 
Heartbeat CPU  1 instructions:  126000002 cycles:  476215291 heartbeat IPC: 0.14734 cumulative IPC: 0.15079 (Simulation time: 0 hr 17 min 9 sec) 
Heartbeat CPU  2 instructions:  124000000 cycles:  477043909 heartbeat IPC: 0.15331 cumulative IPC: 0.14997 (Simulation time: 0 hr 17 min 10 sec) 
Heartbeat CPU  0 instructions:  122000002 cycles:  480160007 heartbeat IPC: 0.12044 cumulative IPC: 0.15049 (Simulation time: 0 hr 17 min 15 sec) 
Heartbeat CPU  3 instructions:  107000002 cycles:  480342705 heartbeat IPC: 0.12160 cumulative IPC: 0.12445 (Simulation time: 0 hr 17 min 15 sec) 
Heartbeat CPU  1 instructions:  127000003 cycles:  482964679 heartbeat IPC: 0.14816 cumulative IPC: 0.15076 (Simulation time: 0 hr 17 min 19 sec) 
Heartbeat CPU  2 instructions:  125000003 cycles:  483536739 heartbeat IPC: 0.15402 cumulative IPC: 0.15002 (Simulation time: 0 hr 17 min 20 sec) 
Heartbeat CPU  0 instructions:  123000002 cycles:  488427941 heartbeat IPC: 0.12095 cumulative IPC: 0.14996 (Simulation time: 0 hr 17 min 27 sec) 
Heartbeat CPU  3 instructions:  108000000 cycles:  488569256 heartbeat IPC: 0.12156 cumulative IPC: 0.12440 (Simulation time: 0 hr 17 min 27 sec) 
Heartbeat CPU  1 instructions:  128000000 cycles:  489665662 heartbeat IPC: 0.14923 cumulative IPC: 0.15073 (Simulation time: 0 hr 17 min 29 sec) 
Heartbeat CPU  2 instructions:  126000001 cycles:  490058088 heartbeat IPC: 0.15334 cumulative IPC: 0.15007 (Simulation time: 0 hr 17 min 29 sec) 
Heartbeat CPU  1 instructions:  129000000 cycles:  496014291 heartbeat IPC: 0.15751 cumulative IPC: 0.15083 (Simulation time: 0 hr 17 min 38 sec) 
Heartbeat CPU  2 instructions:  127000003 cycles:  496586261 heartbeat IPC: 0.15318 cumulative IPC: 0.15011 (Simulation time: 0 hr 17 min 39 sec) 
Heartbeat CPU  0 instructions:  124000000 cycles:  496739138 heartbeat IPC: 0.12032 cumulative IPC: 0.14945 (Simulation time: 0 hr 17 min 39 sec) 
Heartbeat CPU  3 instructions:  109000000 cycles:  496852156 heartbeat IPC: 0.12073 cumulative IPC: 0.12434 (Simulation time: 0 hr 17 min 40 sec) 
Heartbeat CPU  1 instructions:  130000000 cycles:  502305522 heartbeat IPC: 0.15895 cumulative IPC: 0.15093 (Simulation time: 0 hr 17 min 48 sec) 
Heartbeat CPU  2 instructions:  128000000 cycles:  503106466 heartbeat IPC: 0.15337 cumulative IPC: 0.15016 (Simulation time: 0 hr 17 min 49 sec) 
Heartbeat CPU  0 instructions:  125000000 cycles:  504577770 heartbeat IPC: 0.12757 cumulative IPC: 0.14909 (Simulation time: 0 hr 17 min 51 sec) 
Heartbeat CPU  3 instructions:  110000001 cycles:  505158644 heartbeat IPC: 0.12039 cumulative IPC: 0.12427 (Simulation time: 0 hr 17 min 52 sec) 
Heartbeat CPU  1 instructions:  131000000 cycles:  508645724 heartbeat IPC: 0.15772 cumulative IPC: 0.15102 (Simulation time: 0 hr 17 min 57 sec) 
Heartbeat CPU  2 instructions:  129000000 cycles:  509668893 heartbeat IPC: 0.15238 cumulative IPC: 0.15019 (Simulation time: 0 hr 17 min 59 sec) 
Heartbeat CPU  0 instructions:  126000003 cycles:  512259558 heartbeat IPC: 0.13018 cumulative IPC: 0.14879 (Simulation time: 0 hr 18 min 3 sec) 
Heartbeat CPU  3 instructions:  111000000 cycles:  513431559 heartbeat IPC: 0.12088 cumulative IPC: 0.12421 (Simulation time: 0 hr 18 min 4 sec) 
Heartbeat CPU  1 instructions:  132000000 cycles:  514938163 heartbeat IPC: 0.15892 cumulative IPC: 0.15112 (Simulation time: 0 hr 18 min 7 sec) 
Heartbeat CPU  2 instructions:  130000000 cycles:  516195324 heartbeat IPC: 0.15322 cumulative IPC: 0.15023 (Simulation time: 0 hr 18 min 9 sec) 
Heartbeat CPU  0 instructions:  127000001 cycles:  519495721 heartbeat IPC: 0.13819 cumulative IPC: 0.14864 (Simulation time: 0 hr 18 min 14 sec) 
Heartbeat CPU  1 instructions:  133000000 cycles:  521323650 heartbeat IPC: 0.15661 cumulative IPC: 0.15119 (Simulation time: 0 hr 18 min 16 sec) 
Heartbeat CPU  3 instructions:  112000000 cycles:  522107618 heartbeat IPC: 0.11526 cumulative IPC: 0.12406 (Simulation time: 0 hr 18 min 17 sec) 
Heartbeat CPU  2 instructions:  131000003 cycles:  522743196 heartbeat IPC: 0.15272 cumulative IPC: 0.15026 (Simulation time: 0 hr 18 min 18 sec) 
Heartbeat CPU  0 instructions:  128000000 cycles:  526829744 heartbeat IPC: 0.13635 cumulative IPC: 0.14846 (Simulation time: 0 hr 18 min 25 sec) 
Heartbeat CPU  1 instructions:  134000002 cycles:  527648940 heartbeat IPC: 0.15810 cumulative IPC: 0.15128 (Simulation time: 0 hr 18 min 26 sec) 
Heartbeat CPU  2 instructions:  132000000 cycles:  529282103 heartbeat IPC: 0.15293 cumulative IPC: 0.15029 (Simulation time: 0 hr 18 min 28 sec) 
Heartbeat CPU  3 instructions:  113000003 cycles:  530389396 heartbeat IPC: 0.12075 cumulative IPC: 0.12400 (Simulation time: 0 hr 18 min 30 sec) 
Heartbeat CPU  1 instructions:  135000002 cycles:  533939974 heartbeat IPC: 0.15896 cumulative IPC: 0.15137 (Simulation time: 0 hr 18 min 35 sec) 
Heartbeat CPU  0 instructions:  129000003 cycles:  533954593 heartbeat IPC: 0.14035 cumulative IPC: 0.14835 (Simulation time: 0 hr 18 min 35 sec) 
Heartbeat CPU  2 instructions:  133000001 cycles:  535852542 heartbeat IPC: 0.15220 cumulative IPC: 0.15032 (Simulation time: 0 hr 18 min 38 sec) 
Heartbeat CPU  3 instructions:  114000003 cycles:  538786691 heartbeat IPC: 0.11909 cumulative IPC: 0.12392 (Simulation time: 0 hr 18 min 43 sec) 
Heartbeat CPU  1 instructions:  136000000 cycles:  540268804 heartbeat IPC: 0.15801 cumulative IPC: 0.15145 (Simulation time: 0 hr 18 min 45 sec) 
Heartbeat CPU  0 instructions:  130000001 cycles:  541302387 heartbeat IPC: 0.13610 cumulative IPC: 0.14817 (Simulation time: 0 hr 18 min 47 sec) 
Heartbeat CPU  2 instructions:  134000002 cycles:  542380898 heartbeat IPC: 0.15318 cumulative IPC: 0.15035 (Simulation time: 0 hr 18 min 48 sec) 
Heartbeat CPU  1 instructions:  137000003 cycles:  546653969 heartbeat IPC: 0.15661 cumulative IPC: 0.15152 (Simulation time: 0 hr 18 min 55 sec) 
Heartbeat CPU  3 instructions:  115000000 cycles:  547213965 heartbeat IPC: 0.11866 cumulative IPC: 0.12384 (Simulation time: 0 hr 18 min 56 sec) 
Heartbeat CPU  0 instructions:  131000000 cycles:  548182116 heartbeat IPC: 0.14535 cumulative IPC: 0.14814 (Simulation time: 0 hr 18 min 57 sec) 
[...]
Core_2_L2C_prefetch_miss 43067
Core_2_L2C_writebacks 148298
Core_2_L2C_writeback_hit 148154
Core_2_L2C_writeback_miss 144
Core_2_L2C_prefetch_requested 493254
Core_2_L2C_prefetch_dropped 0
Core_2_L2C_prefetch_issued 493254
Core_2_L2C_prefetch_filled 68952
Core_2_L2C_prefetch_useful 61413
Core_2_L2C_prefetch_useless 7493
Core_2_L2C_prefetch_late 639
Core_2_L2C_average_miss_latency 181.88736

Core_2_L2C_rq_access 570753
Core_2_L2C_rq_forward 0
Core_2_L2C_rq_merged 0
Core_2_L2C_rq_to_cache 570753
Core_2_L2C_rq_full 0

Core_2_L2C_wq_access 178749
Core_2_L2C_wq_forward 0
Core_2_L2C_wq_merged 0
Core_2_L2C_wq_to_cache 178749
Core_2_L2C_wq_full 0

Core_2_L2C_pq_access 493254
Core_2_L2C_pq_forward 0
Core_2_L2C_pq_merged 2693
Core_2_L2C_pq_to_cache 490561
Core_2_L2C_pq_full 0

Core_2_L2C_acc_epochs 204463
Core_2_L2C_acc_level_0 126091
Core_2_L2C_acc_level_1 20986
Core_2_L2C_acc_level_2 18633
Core_2_L2C_acc_level_3 6295
Core_2_L2C_acc_level_4 1690
Core_2_L2C_acc_level_5 16932
Core_2_L2C_acc_level_6 2882
Core_2_L2C_acc_level_7 2450
Core_2_L2C_acc_level_8 1342
Core_2_L2C_acc_level_9 7162

Core_2_LLC_total_access 800518
Core_2_LLC_total_hit 494862
Core_2_LLC_total_miss 305656
Core_2_LLC_loads 370841
Core_2_LLC_load_hit 164881
Core_2_LLC_load_miss 205960
Core_2_LLC_RFOs 340
Core_2_LLC_RFO_hit 8
Core_2_LLC_RFO_miss 332
Core_2_LLC_prefetches 286282
Core_2_LLC_prefetch_hit 191104
Core_2_LLC_prefetch_miss 95178
Core_2_LLC_writebacks 143055
Core_2_LLC_writeback_hit 138869
Core_2_LLC_writeback_miss 4186
Core_2_LLC_prefetch_requested 0
Core_2_LLC_prefetch_dropped 0
Core_2_LLC_prefetch_issued 0
Core_2_LLC_prefetch_filled 615930
Core_2_LLC_prefetch_useful 345592
Core_2_LLC_prefetch_useless 253624
Core_2_LLC_prefetch_late 2962
Core_2_LLC_average_miss_latency 943.08073

Core_2_LLC_rq_access 2548445
Core_2_LLC_rq_forward 0
Core_2_LLC_rq_merged 0
Core_2_LLC_rq_to_cache 2548435
Core_2_LLC_rq_full 0

Core_2_LLC_wq_access 1738485
Core_2_LLC_wq_forward 10
Core_2_LLC_wq_merged 0
Core_2_LLC_wq_to_cache 1738485
Core_2_LLC_wq_full 0

Core_2_LLC_pq_access 3720449
Core_2_LLC_pq_forward 0
Core_2_LLC_pq_merged 15865
Core_2_LLC_pq_to_cache 3704584
Core_2_LLC_pq_full 0

Core_2_LLC_acc_epochs 1194141
Core_2_LLC_acc_level_0 911408
Core_2_LLC_acc_level_1 91828
Core_2_LLC_acc_level_2 68762
Core_2_LLC_acc_level_3 23028
Core_2_LLC_acc_level_4 7460
Core_2_LLC_acc_level_5 55332
Core_2_LLC_acc_level_6 9391
Core_2_LLC_acc_level_7 8978
Core_2_LLC_acc_level_8 2872
Core_2_LLC_acc_level_9 15082

Core_2_major_page_fault 0
Core_2_minor_page_fault 4361

Core_3_instructions 150000000
Core_3_cycles 1200469178
Core_3_IPC 0.12495

Core_3_branch_prediction_accuracy 99.49779
Core_3_branch_MPKI 1.14945
Core_3_average_ROB_occupancy_at_mispredict 129.42063

Core_3_L1D_total_access 24744218
Core_3_L1D_total_hit 23578001
Core_3_L1D_total_miss 1166217
Core_3_L1D_loads 14497336
Core_3_L1D_load_hit 13384085
Core_3_L1D_load_miss 1113251
Core_3_L1D_RFOs 10246882
Core_3_L1D_RFO_hit 10193916
Core_3_L1D_RFO_miss 52966
Core_3_L1D_prefetches 0
Core_3_L1D_prefetch_hit 0
Core_3_L1D_prefetch_miss 0
Core_3_L1D_writebacks 0
Core_3_L1D_writeback_hit 0
Core_3_L1D_writeback_miss 0
Core_3_L1D_prefetch_requested 0
Core_3_L1D_prefetch_dropped 0
Core_3_L1D_prefetch_issued 0
Core_3_L1D_prefetch_filled 0
Core_3_L1D_prefetch_useful 0
Core_3_L1D_prefetch_useless 0
Core_3_L1D_prefetch_late 0
Core_3_L1D_average_miss_latency 146.28161

Core_3_L1D_rq_access 21409879
Core_3_L1D_rq_forward 0
Core_3_L1D_rq_merged 6850375
Core_3_L1D_rq_to_cache 14559500
Core_3_L1D_rq_full 0

Core_3_L1D_wq_access 11292077
Core_3_L1D_wq_forward 4
Core_3_L1D_wq_merged 813602
Core_3_L1D_wq_to_cache 10478475
Core_3_L1D_wq_full 30972

Core_3_L1D_pq_access 0
Core_3_L1D_pq_forward 0
Core_3_L1D_pq_merged 0
Core_3_L1D_pq_to_cache 0
Core_3_L1D_pq_full 0

Core_3_L1D_acc_epochs 156277
Core_3_L1D_acc_level_0 156277
Core_3_L1D_acc_level_1 0
Core_3_L1D_acc_level_2 0
Core_3_L1D_acc_level_3 0
Core_3_L1D_acc_level_4 0
Core_3_L1D_acc_level_5 0
Core_3_L1D_acc_level_6 0
Core_3_L1D_acc_level_7 0
Core_3_L1D_acc_level_8 0
Core_3_L1D_acc_level_9 0

Core_3_L1I_total_access 41560408
Core_3_L1I_total_hit 41548336
Core_3_L1I_total_miss 12072
Core_3_L1I_loads 41560408
Core_3_L1I_load_hit 41548336
Core_3_L1I_load_miss 12072
Core_3_L1I_RFOs 0
Core_3_L1I_RFO_hit 0
Core_3_L1I_RFO_miss 0
Core_3_L1I_prefetches 0
Core_3_L1I_prefetch_hit 0
Core_3_L1I_prefetch_miss 0
Core_3_L1I_writebacks 0
Core_3_L1I_writeback_hit 0
Core_3_L1I_writeback_miss 0
Core_3_L1I_prefetch_requested 0
Core_3_L1I_prefetch_dropped 0
Core_3_L1I_prefetch_issued 0
Core_3_L1I_prefetch_filled 0
Core_3_L1I_prefetch_useful 0
Core_3_L1I_prefetch_useless 0
Core_3_L1I_prefetch_late 0
Core_3_L1I_average_miss_latency 182.42860

Core_3_L1I_rq_access 149999753
Core_3_L1I_rq_forward 0
Core_3_L1I_rq_merged 108429703
Core_3_L1I_rq_to_cache 41570050
Core_3_L1I_rq_full 0

Core_3_L1I_wq_access 0
Core_3_L1I_wq_forward 0
Core_3_L1I_wq_merged 0
Core_3_L1I_wq_to_cache 0
Core_3_L1I_wq_full 0

Core_3_L1I_pq_access 0
Core_3_L1I_pq_forward 0
Core_3_L1I_pq_merged 0
Core_3_L1I_pq_to_cache 0
Core_3_L1I_pq_full 0

Core_3_L1I_acc_epochs 156277
Core_3_L1I_acc_level_0 156277
Core_3_L1I_acc_level_1 0
Core_3_L1I_acc_level_2 0
Core_3_L1I_acc_level_3 0
Core_3_L1I_acc_level_4 0
Core_3_L1I_acc_level_5 0
Core_3_L1I_acc_level_6 0
Core_3_L1I_acc_level_7 0
Core_3_L1I_acc_level_8 0
Core_3_L1I_acc_level_9 0

Core_3_L2C_total_access 2226751
Core_3_L2C_total_hit 1312562
Core_3_L2C_total_miss 914189
Core_3_L2C_loads 1125321
Core_3_L2C_load_hit 449609
Core_3_L2C_load_miss 675712
Core_3_L2C_RFOs 52964
Core_3_L2C_RFO_hit 9406
Core_3_L2C_RFO_miss 43558
Core_3_L2C_prefetches 334532
Core_3_L2C_prefetch_hit 141635
Core_3_L2C_prefetch_miss 192897
Core_3_L2C_writebacks 713934
Core_3_L2C_writeback_hit 711912
Core_3_L2C_writeback_miss 2022
Core_3_L2C_prefetch_requested 2127817
Core_3_L2C_prefetch_dropped 0
Core_3_L2C_prefetch_issued 2127817
Core_3_L2C_prefetch_filled 255385
Core_3_L2C_prefetch_useful 249340
Core_3_L2C_prefetch_useless 6026
Core_3_L2C_prefetch_late 1464
Core_3_L2C_average_miss_latency 107.45311

Core_3_L2C_rq_access 1178289
Core_3_L2C_rq_forward 0
Core_3_L2C_rq_merged 0
Core_3_L2C_rq_to_cache 1178285
Core_3_L2C_rq_full 0

Core_3_L2C_wq_access 713934
Core_3_L2C_wq_forward 4
Core_3_L2C_wq_merged 0
Core_3_L2C_wq_to_cache 713934
Core_3_L2C_wq_full 0

Core_3_L2C_pq_access 2127817
Core_3_L2C_pq_forward 0
Core_3_L2C_pq_merged 14467
Core_3_L2C_pq_to_cache 2113350
Core_3_L2C_pq_full 0

Core_3_L2C_acc_epochs 156277
Core_3_L2C_acc_level_0 34166
Core_3_L2C_acc_level_1 6024
Core_3_L2C_acc_level_2 6506
Core_3_L2C_acc_level_3 6403
Core_3_L2C_acc_level_4 6909
Core_3_L2C_acc_level_5 9535
Core_3_L2C_acc_level_6 8162
Core_3_L2C_acc_level_7 10309
Core_3_L2C_acc_level_8 12161
Core_3_L2C_acc_level_9 56102

Core_3_LLC_total_access 2708515
Core_3_LLC_total_hit 2458671
Core_3_LLC_total_miss 249844
Core_3_LLC_loads 674244
Core_3_LLC_load_hit 543300
Core_3_LLC_load_miss 130944
Core_3_LLC_RFOs 43558
Core_3_LLC_RFO_hit 26844
Core_3_LLC_RFO_miss 16714
Core_3_LLC_prefetches 1450119
Core_3_LLC_prefetch_hit 1351312
Core_3_LLC_prefetch_miss 98807
Core_3_LLC_writebacks 540594
Core_3_LLC_writeback_hit 537215
Core_3_LLC_writeback_miss 3379
Core_3_LLC_prefetch_requested 0
Core_3_LLC_prefetch_dropped 0
Core_3_LLC_prefetch_issued 0
Core_3_LLC_prefetch_filled 615930
Core_3_LLC_prefetch_useful 345592
Core_3_LLC_prefetch_useless 253624
Core_3_LLC_prefetch_late 2962
Core_3_LLC_average_miss_latency 1153.75307

Core_3_LLC_rq_access 2548445
Core_3_LLC_rq_forward 0
Core_3_LLC_rq_merged 0
Core_3_LLC_rq_to_cache 2548435
Core_3_LLC_rq_full 0

Core_3_LLC_wq_access 1738485
Core_3_LLC_wq_forward 10
Core_3_LLC_wq_merged 0
Core_3_LLC_wq_to_cache 1738485
Core_3_LLC_wq_full 0

Core_3_LLC_pq_access 3720449
Core_3_LLC_pq_forward 0
Core_3_LLC_pq_merged 15865
Core_3_LLC_pq_to_cache 3704584
Core_3_LLC_pq_full 0

Core_3_LLC_acc_epochs 1194141
Core_3_LLC_acc_level_0 911408
Core_3_LLC_acc_level_1 91828
Core_3_LLC_acc_level_2 68762
Core_3_LLC_acc_level_3 23028
Core_3_LLC_acc_level_4 7460
Core_3_LLC_acc_level_5 55332
Core_3_LLC_acc_level_6 9391
Core_3_LLC_acc_level_7 8978
Core_3_LLC_acc_level_8 2872
Core_3_LLC_acc_level_9 15082

Core_3_major_page_fault 0
Core_3_minor_page_fault 1707

spp.pref.total 1169691
spp.pref.at_L2 104101
spp.pref.at_LLC 1065590

spp.depth.max 11
spp.depth.min 0
spp.depth.avg 0

spp.breadth.max 2
spp.breadth.min 0
spp.breadth.avg 0

delta_1 910988
delta_-2 146226
delta_-1 122947
delta_-12 80952
delta_2 43916
delta_3 3517
delta_4 2961
delta_-4 2576
delta_-8 942
delta_15 936
delta_5 933
delta_-3 786
delta_35 746
delta_6 642
delta_14 592
delta_-33 530
delta_-10 502
delta_8 487
delta_-7 447
delta_-32 436
delta_11 430
delta_-37 397
delta_-29 350
delta_9 335
delta_29 330
delta_-6 318
delta_-15 316
delta_-41 314
delta_25 312
delta_7 284
delta_41 283
delta_-26 256
delta_-35 249
delta_-11 238
delta_-46 214
delta_32 213
delta_17 178
delta_-5 176
delta_-31 169
delta_20 139
delta_30 133
delta_-27 129
delta_12 126
delta_-22 125
delta_-13 123
delta_18 123
delta_21 97
delta_16 97
delta_-21 89
delta_-18 82
delta_-39 79
delta_49 76
delta_13 74
delta_-40 73
delta_-23 73
delta_40 58
delta_51 57
delta_-17 54
delta_-16 53
delta_36 49
delta_19 44
delta_-30 41
delta_23 41
delta_-50 40
delta_44 38
delta_46 37
delta_-14 36
delta_43 34
delta_34 34
delta_-52 33
delta_-9 32
delta_-20 31
delta_-53 29
delta_-19 28
delta_55 26
delta_47 20
delta_10 19
delta_31 16
delta_26 14
delta_-28 14
delta_45 12
delta_33 11
delta_-62 6
delta_62 6
delta_39 6
delta_-48 4
delta_-42 4
delta_54 4
delta_58 2
delta_-25 2
delta_-36 2
delta_28 2

depth_1_delta_1 307266
depth_1_delta_-12 41824
depth_1_delta_-1 39618
depth_1_delta_-2 35516
depth_1_delta_2 22606
depth_1_delta_3 3076
depth_1_delta_4 1854
depth_1_delta_-4 1493
depth_1_delta_5 880
depth_1_delta_-8 738
depth_1_delta_15 716
depth_1_delta_-3 591
depth_1_delta_6 556
depth_1_delta_-10 478
depth_1_delta_14 455
depth_1_delta_35 450
depth_1_delta_-7 447
depth_1_delta_11 403
depth_1_delta_8 359
depth_1_delta_25 308
depth_1_delta_-32 269
depth_1_delta_9 268
depth_1_delta_7 266
depth_1_delta_-33 266
depth_1_delta_-6 263
depth_1_delta_-35 247
depth_1_delta_-37 235
depth_1_delta_-41 234
depth_1_delta_-11 215
depth_1_delta_41 210
depth_1_delta_-26 208
depth_1_delta_32 204
depth_1_delta_-15 197
depth_1_delta_29 187
depth_1_delta_-5 176
depth_1_delta_17 175
depth_1_delta_-29 165
depth_1_delta_-31 159
depth_1_delta_30 133
depth_1_delta_-46 128
depth_1_delta_12 126
depth_1_delta_18 123
depth_1_delta_-13 119
depth_1_delta_20 113
depth_1_delta_-27 105
depth_1_delta_16 97
depth_1_delta_21 97
depth_1_delta_-22 89
depth_1_delta_-21 88
depth_1_delta_-18 79
depth_1_delta_-39 79
depth_1_delta_49 74
depth_1_delta_-23 73
depth_1_delta_-40 73
depth_1_delta_13 72
depth_1_delta_40 58
depth_1_delta_-17 54
depth_1_delta_-16 53
depth_1_delta_51 52
depth_1_delta_36 49
depth_1_delta_19 44
depth_1_delta_-30 41
depth_1_delta_23 41
depth_1_delta_-50 40
depth_1_delta_44 38
depth_1_delta_46 37
depth_1_delta_-14 36
depth_1_delta_43 34
depth_1_delta_-9 32
depth_1_delta_34 32
depth_1_delta_-20 31
depth_1_delta_-52 30
depth_1_delta_-53 29
depth_1_delta_-19 28
depth_1_delta_55 26
depth_1_delta_47 20
depth_1_delta_10 19
depth_1_delta_31 16
depth_1_delta_-28 14
depth_1_delta_26 14
depth_1_delta_45 12
depth_1_delta_33 11
depth_1_delta_-62 6
depth_1_delta_39 6
depth_1_delta_62 6
depth_1_delta_-48 4
depth_1_delta_54 4
depth_1_delta_-42 4
depth_1_delta_58 2
depth_1_delta_-25 2
depth_1_delta_-36 2
depth_1_delta_28 2
depth_2_delta_1 223419
depth_2_delta_-2 28252
depth_2_delta_-12 22365
depth_2_delta_-1 20987
depth_2_delta_2 11592
depth_2_delta_4 509
depth_2_delta_3 430
depth_2_delta_-4 426
depth_2_delta_35 291
depth_2_delta_-8 199
depth_2_delta_-3 168
depth_2_delta_-33 168
depth_2_delta_-37 162
depth_2_delta_-32 150
depth_2_delta_15 146
depth_2_delta_-29 132
depth_2_delta_14 131
depth_2_delta_29 120
depth_2_delta_8 114
depth_2_delta_-15 92
depth_2_delta_-46 86
depth_2_delta_6 77
depth_2_delta_41 71
depth_2_delta_-41 71
depth_2_delta_9 67
depth_2_delta_5 53
depth_2_delta_-6 50
depth_2_delta_-26 45
depth_2_delta_-22 33
depth_2_delta_11 27
depth_2_delta_20 26
depth_2_delta_-10 24
depth_2_delta_-27 24
depth_2_delta_-11 23
depth_2_delta_7 18
depth_2_delta_-31 10
depth_2_delta_32 9
depth_2_delta_51 5
depth_2_delta_25 4
depth_2_delta_-13 4
depth_2_delta_17 3
depth_2_delta_-18 3
depth_2_delta_-52 3
depth_2_delta_-35 2
depth_2_delta_34 2
depth_2_delta_13 2
depth_2_delta_49 2
depth_3_delta_1 151992
depth_3_delta_-2 26368
depth_3_delta_-1 19480
depth_3_delta_-12 12072
depth_3_delta_2 6420
depth_3_delta_-4 358
depth_3_delta_4 311
depth_3_delta_-33 96
depth_3_delta_15 70
depth_3_delta_-29 53
depth_3_delta_-3 27
depth_3_delta_29 23
depth_3_delta_-15 21
depth_3_delta_-32 17
depth_3_delta_8 14
depth_3_delta_3 11
depth_3_delta_-41 9
depth_3_delta_6 9
depth_3_delta_14 6
depth_3_delta_35 5
depth_3_delta_-6 5
depth_3_delta_-8 5
depth_3_delta_-22 3
depth_3_delta_-26 3
depth_3_delta_41 2
depth_3_delta_-21 1
depth_4_delta_1 92683
depth_4_delta_-2 23756
depth_4_delta_-1 17723
depth_4_delta_-12 4689
depth_4_delta_2 3034
depth_4_delta_-4 210
depth_4_delta_4 207
depth_4_delta_-15 6
depth_4_delta_15 4
depth_5_delta_1 57126
depth_5_delta_-2 19630
depth_5_delta_-1 13858
depth_5_delta_2 249
depth_5_delta_-4 78
depth_5_delta_4 71
depth_5_delta_-12 2
depth_6_delta_1 35692
depth_6_delta_-2 10409
depth_6_delta_-1 7834
depth_6_delta_2 15
depth_6_delta_-4 11
depth_6_delta_4 9
depth_7_delta_1 20048
depth_7_delta_-1 3003
depth_7_delta_-2 2131
depth_8_delta_1 13157
depth_8_delta_-1 387
depth_8_delta_-2 149
depth_9_delta_1 7577
depth_9_delta_-1 53
depth_9_delta_-2 15
depth_10_delta_1 2015
depth_10_delta_-1 4
depth_11_delta_1 13

spp.pref.total 594610
spp.pref.at_L2 66937
spp.pref.at_LLC 527673

spp.depth.max 8
spp.depth.min 0
spp.depth.avg 1

spp.breadth.max 2
spp.breadth.min 0
spp.breadth.avg 0

delta_-1 320621
delta_-2 153394
delta_-12 90438
delta_1 24679
delta_-3 8033
delta_2 5895
delta_53 123
delta_-48 79
delta_-49 54
delta_52 31
delta_-50 23
delta_48 19
delta_-4 18
delta_46 13
delta_56 13
delta_45 10
delta_57 10
delta_50 8
delta_47 7
delta_-53 6
delta_49 3
delta_51 3
delta_-55 3
delta_54 2
delta_-5 1
delta_12 1
delta_-57 1
delta_-51 1
delta_7 1

depth_1_delta_-1 105364
depth_1_delta_-2 69094
depth_1_delta_-12 54386
depth_1_delta_1 13462
depth_1_delta_2 4823
depth_1_delta_-3 4201
depth_1_delta_53 109
depth_1_delta_-48 79
depth_1_delta_-49 54
depth_1_delta_52 31
depth_1_delta_-50 22
depth_1_delta_48 19
depth_1_delta_-4 18
depth_1_delta_46 13
depth_1_delta_56 13
depth_1_delta_45 10
depth_1_delta_57 10
depth_1_delta_50 8
depth_1_delta_47 7
depth_1_delta_-53 6
depth_1_delta_49 3
depth_1_delta_51 3
depth_1_delta_-55 3
depth_1_delta_54 2
depth_1_delta_-5 1
depth_1_delta_12 1
depth_1_delta_-57 1
depth_1_delta_-51 1
depth_1_delta_7 1
depth_2_delta_-1 85078
depth_2_delta_-2 53846
depth_2_delta_-12 23786
depth_2_delta_1 10834
depth_2_delta_-3 3649
depth_2_delta_2 844
depth_2_delta_53 14
depth_2_delta_-50 1
depth_3_delta_-1 70851
depth_3_delta_-2 24457
depth_3_delta_-12 10088
depth_3_delta_1 374
depth_3_delta_2 203
depth_3_delta_-3 163
depth_4_delta_-1 34904
depth_4_delta_-2 4899
depth_4_delta_-12 2178
depth_4_delta_2 25
depth_4_delta_-3 19
depth_4_delta_1 9
depth_5_delta_-1 19207
depth_5_delta_-2 1021
depth_5_delta_-3 1
depth_6_delta_-1 5032
depth_6_delta_-2 77
depth_7_delta_-1 184
depth_8_delta_-1 1

spp.pref.total 493254
spp.pref.at_L2 73483
spp.pref.at_LLC 419771

spp.depth.max 5
spp.depth.min 0
spp.depth.avg 0

spp.breadth.max 2
spp.breadth.min 0
spp.breadth.avg 0

delta_-1 203283
delta_-12 146842
delta_-2 120425
delta_1 21581
delta_-3 6358
delta_2 4400
delta_37 88
delta_42 82
delta_38 54
delta_-37 41
delta_-4 26
delta_-41 12
delta_-43 8
delta_41 7
delta_-38 6
delta_50 6
delta_-39 5
delta_40 4
delta_-35 4
delta_-42 2
delta_5 2
delta_-40 1
delta_-44 1
delta_35 1
delta_-19 1

depth_1_delta_-1 78156
depth_1_delta_-12 70523
depth_1_delta_-2 64701
depth_1_delta_1 13078
depth_1_delta_2 4373
depth_1_delta_-3 3596
depth_1_delta_37 88
depth_1_delta_42 82
depth_1_delta_38 54
depth_1_delta_-37 41
depth_1_delta_-4 26
depth_1_delta_-41 12
depth_1_delta_-43 8
depth_1_delta_41 7
depth_1_delta_-38 6
depth_1_delta_50 6
depth_1_delta_-39 5
depth_1_delta_40 4
depth_1_delta_-35 4
depth_1_delta_-42 2
depth_1_delta_5 2
depth_1_delta_-40 1
depth_1_delta_-44 1
depth_1_delta_35 1
depth_1_delta_-19 1
depth_2_delta_-1 77023
depth_2_delta_-12 48329
depth_2_delta_-2 46955
depth_2_delta_1 8407
depth_2_delta_-3 2762
depth_2_delta_2 27
depth_3_delta_-1 40282
depth_3_delta_-12 24563
depth_3_delta_-2 8250
depth_3_delta_1 96
depth_4_delta_-1 7788
depth_4_delta_-12 3422
depth_4_delta_-2 519
depth_5_delta_-1 34
depth_5_delta_-12 5

spp.pref.total 2127817
spp.pref.at_L2 279084
spp.pref.at_LLC 1848733

spp.depth.max 10
spp.depth.min 0
spp.depth.avg 1

spp.breadth.max 2
spp.breadth.min 0
spp.breadth.avg 0

delta_-2 624595
delta_1 605887
delta_-1 402500
delta_-12 397611
delta_2 135315
delta_4 2622
delta_12 745
delta_-14 731
delta_13 621
delta_19 459
delta_-17 409
delta_15 303
delta_49 233
delta_25 207
delta_18 195
delta_53 192
delta_-3 167
delta_3 166
delta_11 144
delta_16 130
delta_7 73
delta_-26 50
delta_-20 50
delta_-21 46
delta_46 34
delta_47 27
delta_-32 26
delta_-6 22
delta_23 22
delta_54 20
delta_27 17
delta_-18 16
delta_-15 14
delta_58 11
delta_51 8
delta_8 8
delta_32 6
delta_31 4
delta_26 3
delta_36 3
delta_52 2
delta_-8 2
delta_10 2
delta_5 2
delta_-27 1
delta_-16 1
delta_-7 1
delta_-9 1

depth_1_delta_-12 213118
depth_1_delta_1 156112
depth_1_delta_-2 138387
depth_1_delta_-1 91426
depth_1_delta_2 45160
depth_1_delta_4 2607
depth_1_delta_12 726
depth_1_delta_-14 706
depth_1_delta_13 614
depth_1_delta_19 459
depth_1_delta_-17 405
depth_1_delta_15 301
depth_1_delta_49 230
depth_1_delta_18 195
depth_1_delta_25 180
depth_1_delta_-3 167
depth_1_delta_3 166
depth_1_delta_53 153
depth_1_delta_11 144
depth_1_delta_16 130
depth_1_delta_7 73
depth_1_delta_-26 50
depth_1_delta_-20 50
depth_1_delta_-21 46
depth_1_delta_46 34
depth_1_delta_47 27
depth_1_delta_-32 26
depth_1_delta_-6 22
depth_1_delta_23 22
depth_1_delta_54 20
depth_1_delta_-18 16
depth_1_delta_27 15
depth_1_delta_-15 14
depth_1_delta_58 11
depth_1_delta_51 8
depth_1_delta_8 8
depth_1_delta_32 6
depth_1_delta_31 4
depth_1_delta_26 3
depth_1_delta_36 3
depth_1_delta_52 2
depth_1_delta_-8 2
depth_1_delta_10 2
depth_1_delta_5 2
depth_1_delta_-27 1
depth_1_delta_-16 1
depth_1_delta_-7 1
depth_1_delta_-9 1
depth_2_delta_1 141917
depth_2_delta_-2 128423
depth_2_delta_-12 108795
depth_2_delta_-1 83393
depth_2_delta_2 40838
depth_2_delta_25 27
depth_2_delta_-14 25
depth_2_delta_53 22
depth_2_delta_12 19
depth_2_delta_4 15
depth_2_delta_13 7
depth_2_delta_-17 4
depth_2_delta_49 3
depth_2_delta_27 2
depth_2_delta_15 2
depth_3_delta_1 134333
depth_3_delta_-2 123992
depth_3_delta_-1 77817
depth_3_delta_-12 55816
depth_3_delta_2 37908
depth_3_delta_53 12
depth_4_delta_-2 110295
depth_4_delta_1 89311
depth_4_delta_-1 68670
depth_4_delta_-12 19829
depth_4_delta_2 11059
depth_4_delta_53 5
depth_5_delta_-2 81766
depth_5_delta_1 53480
depth_5_delta_-1 48051
depth_5_delta_2 340
depth_5_delta_-12 53
depth_6_delta_-2 36111
depth_6_delta_1 25521
depth_6_delta_-1 23735
depth_6_delta_2 10
depth_7_delta_-1 8871
depth_7_delta_-2 5513
depth_7_delta_1 5101
depth_8_delta_-1 500
depth_8_delta_1 112
depth_8_delta_-2 108
depth_9_delta_-1 36
depth_10_delta_-1 1

Channel_0_RQ_row_buffer_hit 19327
Channel_0_RQ_row_buffer_miss 735404
Channel_0_WQ_row_buffer_hit 23744
Channel_0_WQ_row_buffer_miss 399707
Channel_0_WQ_full 0
Channel_0_dbus_congested 102000

Channel_1_RQ_row_buffer_hit 19005
Channel_1_RQ_row_buffer_miss 734248
Channel_1_WQ_row_buffer_hit 23494
Channel_1_WQ_row_buffer_miss 400361
Channel_1_WQ_full 0
Channel_1_dbus_congested 102559

avg_congested_cycle 9

DRAM_bw_pochs 4776563
DRAM_bw_level_0 4774253
DRAM_bw_level_1 1166
DRAM_bw_level_2 1004
DRAM_bw_level_3 140
