*************************************************
   ChampSim Multicore Out-of-Order Simulator
   Last compiled: Mar 31 2025 20:14:32
*************************************************
parsing config file: /data3/config/nopref.ini

trace_0 /data3/CLOUD9/traces/cloud9_phase1_core0.trace.xz
trace_1 /data3/CLOUD9/traces/cloud9_phase1_core1.trace.xz
trace_2 /data3/CLOUD9/traces/cloud9_phase1_core2.trace.xz
trace_3 /data3/CLOUD9/traces/cloud9_phase1_core3.trace.xz
adding L2C_PREFETCHER: NONE
adding L2C_PREFETCHER: NONE
adding L2C_PREFETCHER: NONE
adding L2C_PREFETCHER: NONE
Initialize SHIP state
warmup_instructions 50000000
simulation_instructions 150000000
champsim_seed 7338
measure_ipc 0
measure_ipc_epoch 1000
measure_dram_bw 1
measure_dram_bw_epoch 256
measure_cache_acc 1
measure_cache_acc_epoch 1024
l1d_perfect 0
l2c_perfect 0
llc_perfect 0
l1d_semi_perfect 0
l2c_semi_perfect 0
llc_semi_perfect 0
semi_perfect_cache_page_buffer_size 64

num_cpus 4
cpu_freq 4000
dram_io_freq 2400
page_size 4096
block_size 64
max_read_per_cycle 8
max_fill_per_cycle 1
dram_channels 2
log2_dram_channels 1
dram_ranks 1
dram_banks 8
dram_rows 65536
dram_columns 128
dram_row_size 8
dram_size 8192
dram_pages 2097152

fetch_width 6
decode_width 6
exec_width 4
lq_width 2
sq_width 2
retire_width 4
scheduler_size 128
branch_mispredict_penalty 20
rob_size 256
lq_size 72
sq_size 56
num_instr_destinations_sparc 4
num_instr_destinations 2
num_instr_sources 4

itlb_set 16
itlb_way 8
itlb_rq_size 16
itlb_wq_size 16
itlb_pq_size 0
itlb_mshr_size 8
itlb_latency 1

dtlb_set 16
dtlb_way 4
dtlb_rq_size 16
dtlb_wq_size 16
dtlb_pq_size 0
dtlb_mshr_size 8
dtlb_latency 1

stlb_set 128
stlb_way 12
stlb_rq_size 32
stlb_wq_size 32
stlb_pq_size 0
stlb_mshr_size 16
stlb_latency 8

l1i_size 32
l1i_set 64
l1i_way 8
l1i_rq_size 64
l1i_wq_size 64
l1i_pq_size 8
l1i_mshr_size 8
l1i_latency 1

l1d_size 32
l1d_set 64
l1d_way 8
l1d_rq_size 64
l1d_wq_size 64
l1d_pq_size 8
l1d_mshr_size 16
l1d_latency 4

l2c_size 256
l2c_set 512
l2c_way 8
l2c_rq_size 32
l2c_wq_size 32
l2c_pq_size 32
l2c_mshr_size 32
l2c_latency 10

llc_size 8192
llc_set 8192
llc_way 16
llc_rq_size 128
llc_wq_size 128
llc_pq_size 128
llc_mshr_size 256
llc_latency 20

dram_channel_width 8
dram_wq_size 64
dram_rq_size 64
tRP 15
tRCD 15
tCAS 12.5
dram_dbus_turn_around_time 30
dram_write_high_wm 56
dram_write_low_wm 48
min_dram_writes_per_switch 16
dram_mtps 2400
dram_dbus_return_time 13


Heartbeat CPU  1 instructions:    1000001 cycles:     398136 heartbeat IPC: 2.51171 cumulative IPC: 2.51171 (Simulation time: 0 hr 0 min 6 sec) 
Heartbeat CPU  2 instructions:    1000002 cycles:     412126 heartbeat IPC: 2.42645 cumulative IPC: 2.42645 (Simulation time: 0 hr 0 min 6 sec) 
Heartbeat CPU  3 instructions:    1000000 cycles:     444897 heartbeat IPC: 2.24771 cumulative IPC: 2.24771 (Simulation time: 0 hr 0 min 7 sec) 
Heartbeat CPU  0 instructions:    1000000 cycles:     456564 heartbeat IPC: 2.19027 cumulative IPC: 2.19027 (Simulation time: 0 hr 0 min 7 sec) 
Heartbeat CPU  1 instructions:    2000001 cycles:     786289 heartbeat IPC: 2.57630 cumulative IPC: 2.54360 (Simulation time: 0 hr 0 min 12 sec) 
Heartbeat CPU  2 instructions:    2000002 cycles:     816484 heartbeat IPC: 2.47306 cumulative IPC: 2.44953 (Simulation time: 0 hr 0 min 12 sec) 
Heartbeat CPU  3 instructions:    2000003 cycles:     864725 heartbeat IPC: 2.38193 cumulative IPC: 2.31288 (Simulation time: 0 hr 0 min 13 sec) 
Heartbeat CPU  0 instructions:    2000000 cycles:     913224 heartbeat IPC: 2.18981 cumulative IPC: 2.19004 (Simulation time: 0 hr 0 min 13 sec) 
Heartbeat CPU  1 instructions:    3000002 cycles:    1174176 heartbeat IPC: 2.57807 cumulative IPC: 2.55499 (Simulation time: 0 hr 0 min 17 sec) 
Heartbeat CPU  2 instructions:    3000003 cycles:    1221112 heartbeat IPC: 2.47141 cumulative IPC: 2.45678 (Simulation time: 0 hr 0 min 18 sec) 
Heartbeat CPU  3 instructions:    3000001 cycles:    1293781 heartbeat IPC: 2.33069 cumulative IPC: 2.31879 (Simulation time: 0 hr 0 min 19 sec) 
Heartbeat CPU  0 instructions:    3000000 cycles:    1366446 heartbeat IPC: 2.20642 cumulative IPC: 2.19548 (Simulation time: 0 hr 0 min 20 sec) 
Heartbeat CPU  1 instructions:    4000000 cycles:    1562872 heartbeat IPC: 2.57270 cumulative IPC: 2.55939 (Simulation time: 0 hr 0 min 23 sec) 
Heartbeat CPU  2 instructions:    4000000 cycles:    1625195 heartbeat IPC: 2.47473 cumulative IPC: 2.46124 (Simulation time: 0 hr 0 min 24 sec) 
Heartbeat CPU  3 instructions:    4000000 cycles:    1703199 heartbeat IPC: 2.44249 cumulative IPC: 2.34852 (Simulation time: 0 hr 0 min 25 sec) 
Heartbeat CPU  0 instructions:    4000000 cycles:    1814938 heartbeat IPC: 2.22969 cumulative IPC: 2.20393 (Simulation time: 0 hr 0 min 27 sec) 
Heartbeat CPU  1 instructions:    5000002 cycles:    1951752 heartbeat IPC: 2.57149 cumulative IPC: 2.56180 (Simulation time: 0 hr 0 min 29 sec) 
Heartbeat CPU  2 instructions:    5000002 cycles:    2026624 heartbeat IPC: 2.49111 cumulative IPC: 2.46716 (Simulation time: 0 hr 0 min 30 sec) 
Heartbeat CPU  3 instructions:    5000002 cycles:    2107759 heartbeat IPC: 2.47183 cumulative IPC: 2.37219 (Simulation time: 0 hr 0 min 31 sec) 
Heartbeat CPU  0 instructions:    5000001 cycles:    2262019 heartbeat IPC: 2.23673 cumulative IPC: 2.21042 (Simulation time: 0 hr 0 min 34 sec) 
Heartbeat CPU  1 instructions:    6000002 cycles:    2339932 heartbeat IPC: 2.57612 cumulative IPC: 2.56418 (Simulation time: 0 hr 0 min 35 sec) 
Heartbeat CPU  2 instructions:    6000003 cycles:    2424033 heartbeat IPC: 2.51630 cumulative IPC: 2.47521 (Simulation time: 0 hr 0 min 36 sec) 
Heartbeat CPU  3 instructions:    6000000 cycles:    2577181 heartbeat IPC: 2.13028 cumulative IPC: 2.32813 (Simulation time: 0 hr 0 min 38 sec) 
Heartbeat CPU  0 instructions:    6000001 cycles:    2708797 heartbeat IPC: 2.23825 cumulative IPC: 2.21501 (Simulation time: 0 hr 0 min 40 sec) 
Heartbeat CPU  1 instructions:    7000000 cycles:    2730218 heartbeat IPC: 2.56222 cumulative IPC: 2.56390 (Simulation time: 0 hr 0 min 40 sec) 
Heartbeat CPU  2 instructions:    7000003 cycles:    2828282 heartbeat IPC: 2.47372 cumulative IPC: 2.47500 (Simulation time: 0 hr 0 min 42 sec) 
Heartbeat CPU  3 instructions:    7000001 cycles:    2984297 heartbeat IPC: 2.45630 cumulative IPC: 2.34561 (Simulation time: 0 hr 0 min 44 sec) 
Heartbeat CPU  1 instructions:    8000000 cycles:    3117596 heartbeat IPC: 2.58146 cumulative IPC: 2.56608 (Simulation time: 0 hr 0 min 46 sec) 
Heartbeat CPU  0 instructions:    7000000 cycles:    3185330 heartbeat IPC: 2.09849 cumulative IPC: 2.19757 (Simulation time: 0 hr 0 min 47 sec) 
Heartbeat CPU  2 instructions:    8000000 cycles:    3230289 heartbeat IPC: 2.48751 cumulative IPC: 2.47656 (Simulation time: 0 hr 0 min 48 sec) 
Heartbeat CPU  3 instructions:    8000000 cycles:    3388426 heartbeat IPC: 2.47445 cumulative IPC: 2.36098 (Simulation time: 0 hr 0 min 51 sec) 
Heartbeat CPU  1 instructions:    9000001 cycles:    3504613 heartbeat IPC: 2.58387 cumulative IPC: 2.56804 (Simulation time: 0 hr 0 min 52 sec) 
Heartbeat CPU  2 instructions:    9000000 cycles:    3627268 heartbeat IPC: 2.51902 cumulative IPC: 2.48121 (Simulation time: 0 hr 0 min 54 sec) 
Heartbeat CPU  0 instructions:    8000000 cycles:    3639807 heartbeat IPC: 2.20033 cumulative IPC: 2.19792 (Simulation time: 0 hr 0 min 54 sec) 
Heartbeat CPU  3 instructions:    9000003 cycles:    3793296 heartbeat IPC: 2.46994 cumulative IPC: 2.37261 (Simulation time: 0 hr 0 min 57 sec) 
Heartbeat CPU  1 instructions:   10000002 cycles:    3888760 heartbeat IPC: 2.60317 cumulative IPC: 2.57151 (Simulation time: 0 hr 0 min 58 sec) 
Heartbeat CPU  2 instructions:   10000000 cycles:    4028856 heartbeat IPC: 2.49011 cumulative IPC: 2.48209 (Simulation time: 0 hr 1 min 1 sec) 
Heartbeat CPU  0 instructions:    9000000 cycles:    4085385 heartbeat IPC: 2.24428 cumulative IPC: 2.20297 (Simulation time: 0 hr 1 min 1 sec) 
Heartbeat CPU  3 instructions:   10000001 cycles:    4197512 heartbeat IPC: 2.47392 cumulative IPC: 2.38236 (Simulation time: 0 hr 1 min 3 sec) 
Heartbeat CPU  1 instructions:   11000003 cycles:    4277557 heartbeat IPC: 2.57204 cumulative IPC: 2.57156 (Simulation time: 0 hr 1 min 4 sec) 
Heartbeat CPU  2 instructions:   11000001 cycles:    4428803 heartbeat IPC: 2.50033 cumulative IPC: 2.48374 (Simulation time: 0 hr 1 min 7 sec) 
Heartbeat CPU  0 instructions:   10000002 cycles:    4531231 heartbeat IPC: 2.24293 cumulative IPC: 2.20691 (Simulation time: 0 hr 1 min 8 sec) 
Heartbeat CPU  3 instructions:   11000002 cycles:    4601754 heartbeat IPC: 2.47377 cumulative IPC: 2.39039 (Simulation time: 0 hr 1 min 10 sec) 
Heartbeat CPU  1 instructions:   12000000 cycles:    4665207 heartbeat IPC: 2.57964 cumulative IPC: 2.57223 (Simulation time: 0 hr 1 min 11 sec) 
Heartbeat CPU  2 instructions:   12000000 cycles:    4830861 heartbeat IPC: 2.48720 cumulative IPC: 2.48403 (Simulation time: 0 hr 1 min 13 sec) 
Heartbeat CPU  0 instructions:   11000000 cycles:    4987593 heartbeat IPC: 2.19124 cumulative IPC: 2.20547 (Simulation time: 0 hr 1 min 15 sec) 
Heartbeat CPU  1 instructions:   13000000 cycles:    5053636 heartbeat IPC: 2.57447 cumulative IPC: 2.57241 (Simulation time: 0 hr 1 min 16 sec) 
Heartbeat CPU  3 instructions:   12000000 cycles:    5185194 heartbeat IPC: 1.71397 cumulative IPC: 2.31428 (Simulation time: 0 hr 1 min 18 sec) 
Heartbeat CPU  2 instructions:   13000000 cycles:    5229629 heartbeat IPC: 2.50772 cumulative IPC: 2.48584 (Simulation time: 0 hr 1 min 19 sec) 
Heartbeat CPU  0 instructions:   12000000 cycles:    5417259 heartbeat IPC: 2.32739 cumulative IPC: 2.21514 (Simulation time: 0 hr 1 min 22 sec) 
Heartbeat CPU  1 instructions:   14000003 cycles:    5439954 heartbeat IPC: 2.58855 cumulative IPC: 2.57355 (Simulation time: 0 hr 1 min 22 sec) 
Heartbeat CPU  3 instructions:   13000003 cycles:    5589603 heartbeat IPC: 2.47275 cumulative IPC: 2.32575 (Simulation time: 0 hr 1 min 25 sec) 
Heartbeat CPU  2 instructions:   14000002 cycles:    5627105 heartbeat IPC: 2.51588 cumulative IPC: 2.48796 (Simulation time: 0 hr 1 min 25 sec) 
Heartbeat CPU  1 instructions:   15000002 cycles:    5827651 heartbeat IPC: 2.57933 cumulative IPC: 2.57394 (Simulation time: 0 hr 1 min 29 sec) 
Heartbeat CPU  0 instructions:   13000002 cycles:    5838313 heartbeat IPC: 2.37500 cumulative IPC: 2.22667 (Simulation time: 0 hr 1 min 29 sec) 
Heartbeat CPU  3 instructions:   14000000 cycles:    5993923 heartbeat IPC: 2.47328 cumulative IPC: 2.33570 (Simulation time: 0 hr 1 min 32 sec) 
Heartbeat CPU  2 instructions:   15000003 cycles:    6029511 heartbeat IPC: 2.48505 cumulative IPC: 2.48776 (Simulation time: 0 hr 1 min 32 sec) 
Heartbeat CPU  1 instructions:   16000000 cycles:    6214926 heartbeat IPC: 2.58214 cumulative IPC: 2.57445 (Simulation time: 0 hr 1 min 36 sec) 
Heartbeat CPU  0 instructions:   14000000 cycles:    6267317 heartbeat IPC: 2.33098 cumulative IPC: 2.23381 (Simulation time: 0 hr 1 min 36 sec) 
Heartbeat CPU  3 instructions:   15000000 cycles:    6398172 heartbeat IPC: 2.47372 cumulative IPC: 2.34442 (Simulation time: 0 hr 1 min 39 sec) 
Heartbeat CPU  2 instructions:   16000000 cycles:    6426456 heartbeat IPC: 2.51923 cumulative IPC: 2.48971 (Simulation time: 0 hr 1 min 39 sec) 
Heartbeat CPU  1 instructions:   17000001 cycles:    6602661 heartbeat IPC: 2.57908 cumulative IPC: 2.57472 (Simulation time: 0 hr 1 min 42 sec) 
Heartbeat CPU  0 instructions:   15000003 cycles:    6689367 heartbeat IPC: 2.36939 cumulative IPC: 2.24237 (Simulation time: 0 hr 1 min 43 sec) 
Heartbeat CPU  2 instructions:   17000000 cycles:    6830153 heartbeat IPC: 2.47711 cumulative IPC: 2.48896 (Simulation time: 0 hr 1 min 45 sec) 
Heartbeat CPU  3 instructions:   16000000 cycles:    6838199 heartbeat IPC: 2.27259 cumulative IPC: 2.33980 (Simulation time: 0 hr 1 min 46 sec) 
Heartbeat CPU  1 instructions:   18000002 cycles:    6990780 heartbeat IPC: 2.57653 cumulative IPC: 2.57482 (Simulation time: 0 hr 1 min 48 sec) 
Heartbeat CPU  0 instructions:   16000000 cycles:    7123924 heartbeat IPC: 2.30119 cumulative IPC: 2.24595 (Simulation time: 0 hr 1 min 50 sec) 
Heartbeat CPU  2 instructions:   18000001 cycles:    7230069 heartbeat IPC: 2.50053 cumulative IPC: 2.48960 (Simulation time: 0 hr 1 min 52 sec) 
Heartbeat CPU  3 instructions:   17000000 cycles:    7302426 heartbeat IPC: 2.15412 cumulative IPC: 2.32799 (Simulation time: 0 hr 1 min 53 sec) 
Heartbeat CPU  1 instructions:   19000002 cycles:    7378840 heartbeat IPC: 2.57692 cumulative IPC: 2.57493 (Simulation time: 0 hr 1 min 54 sec) 
Heartbeat CPU  0 instructions:   17000000 cycles:    7578286 heartbeat IPC: 2.20089 cumulative IPC: 2.24325 (Simulation time: 0 hr 1 min 57 sec) 
Heartbeat CPU  2 instructions:   19000003 cycles:    7628142 heartbeat IPC: 2.51211 cumulative IPC: 2.49078 (Simulation time: 0 hr 1 min 57 sec) 
Heartbeat CPU  3 instructions:   18000002 cycles:    7751075 heartbeat IPC: 2.22892 cumulative IPC: 2.32226 (Simulation time: 0 hr 1 min 59 sec) 
Heartbeat CPU  1 instructions:   20000000 cycles:    7764409 heartbeat IPC: 2.59356 cumulative IPC: 2.57586 (Simulation time: 0 hr 2 min 0 sec) 
Heartbeat CPU  0 instructions:   18000001 cycles:    8025864 heartbeat IPC: 2.23425 cumulative IPC: 2.24275 (Simulation time: 0 hr 2 min 4 sec) 
Heartbeat CPU  2 instructions:   20000000 cycles:    8026474 heartbeat IPC: 2.51046 cumulative IPC: 2.49175 (Simulation time: 0 hr 2 min 4 sec) 
Heartbeat CPU  1 instructions:   21000000 cycles:    8149238 heartbeat IPC: 2.59856 cumulative IPC: 2.57693 (Simulation time: 0 hr 2 min 5 sec) 
Heartbeat CPU  3 instructions:   19000003 cycles:    8201313 heartbeat IPC: 2.22105 cumulative IPC: 2.31670 (Simulation time: 0 hr 2 min 6 sec) 
Heartbeat CPU  2 instructions:   21000000 cycles:    8428899 heartbeat IPC: 2.48494 cumulative IPC: 2.49143 (Simulation time: 0 hr 2 min 10 sec) 
Heartbeat CPU  0 instructions:   19000003 cycles:    8446875 heartbeat IPC: 2.37524 cumulative IPC: 2.24935 (Simulation time: 0 hr 2 min 10 sec) 
Heartbeat CPU  1 instructions:   22000000 cycles:    8532610 heartbeat IPC: 2.60843 cumulative IPC: 2.57834 (Simulation time: 0 hr 2 min 12 sec) 
Heartbeat CPU  3 instructions:   20000000 cycles:    8660810 heartbeat IPC: 2.17629 cumulative IPC: 2.30925 (Simulation time: 0 hr 2 min 14 sec) 
Heartbeat CPU  2 instructions:   22000000 cycles:    8825688 heartbeat IPC: 2.52023 cumulative IPC: 2.49272 (Simulation time: 0 hr 2 min 17 sec) 
Heartbeat CPU  0 instructions:   20000000 cycles:    8838683 heartbeat IPC: 2.55226 cumulative IPC: 2.26278 (Simulation time: 0 hr 2 min 17 sec) 
Heartbeat CPU  1 instructions:   23000002 cycles:    8913848 heartbeat IPC: 2.62304 cumulative IPC: 2.58026 (Simulation time: 0 hr 2 min 18 sec) 
Heartbeat CPU  3 instructions:   21000000 cycles:    9087829 heartbeat IPC: 2.34182 cumulative IPC: 2.31078 (Simulation time: 0 hr 2 min 21 sec) 
Heartbeat CPU  2 instructions:   23000003 cycles:    9224931 heartbeat IPC: 2.50475 cumulative IPC: 2.49324 (Simulation time: 0 hr 2 min 23 sec) 
Heartbeat CPU  0 instructions:   21000001 cycles:    9233053 heartbeat IPC: 2.53569 cumulative IPC: 2.27444 (Simulation time: 0 hr 2 min 23 sec) 
Heartbeat CPU  1 instructions:   24000000 cycles:    9294960 heartbeat IPC: 2.62390 cumulative IPC: 2.58204 (Simulation time: 0 hr 2 min 24 sec) 
Heartbeat CPU  3 instructions:   22000000 cycles:    9526205 heartbeat IPC: 2.28115 cumulative IPC: 2.30942 (Simulation time: 0 hr 2 min 28 sec) 
Heartbeat CPU  2 instructions:   24000000 cycles:    9622862 heartbeat IPC: 2.51299 cumulative IPC: 2.49406 (Simulation time: 0 hr 2 min 30 sec) 
Heartbeat CPU  0 instructions:   22000001 cycles:    9627610 heartbeat IPC: 2.53449 cumulative IPC: 2.28509 (Simulation time: 0 hr 2 min 30 sec) 
Heartbeat CPU  1 instructions:   25000003 cycles:    9681900 heartbeat IPC: 2.58439 cumulative IPC: 2.58214 (Simulation time: 0 hr 2 min 31 sec) 
Heartbeat CPU  2 instructions:   25000003 cycles:   10018911 heartbeat IPC: 2.52495 cumulative IPC: 2.49528 (Simulation time: 0 hr 2 min 36 sec) 
Heartbeat CPU  3 instructions:   23000000 cycles:   10020325 heartbeat IPC: 2.02380 cumulative IPC: 2.29533 (Simulation time: 0 hr 2 min 36 sec) 
Heartbeat CPU  0 instructions:   23000002 cycles:   10021383 heartbeat IPC: 2.53954 cumulative IPC: 2.29509 (Simulation time: 0 hr 2 min 36 sec) 
Heartbeat CPU  1 instructions:   26000000 cycles:   10064630 heartbeat IPC: 2.61280 cumulative IPC: 2.58330 (Simulation time: 0 hr 2 min 37 sec) 
Heartbeat CPU  0 instructions:   24000000 cycles:   10415625 heartbeat IPC: 2.53651 cumulative IPC: 2.30423 (Simulation time: 0 hr 2 min 43 sec) 
Heartbeat CPU  2 instructions:   26000000 cycles:   10419031 heartbeat IPC: 2.49924 cumulative IPC: 2.49543 (Simulation time: 0 hr 2 min 43 sec) 
Heartbeat CPU  1 instructions:   27000000 cycles:   10452057 heartbeat IPC: 2.58113 cumulative IPC: 2.58322 (Simulation time: 0 hr 2 min 43 sec) 
Heartbeat CPU  3 instructions:   24000000 cycles:   10455734 heartbeat IPC: 2.29669 cumulative IPC: 2.29539 (Simulation time: 0 hr 2 min 43 sec) 
Heartbeat CPU  0 instructions:   25000000 cycles:   10817245 heartbeat IPC: 2.48992 cumulative IPC: 2.31112 (Simulation time: 0 hr 2 min 49 sec) 
Heartbeat CPU  2 instructions:   27000003 cycles:   10820581 heartbeat IPC: 2.49036 cumulative IPC: 2.49525 (Simulation time: 0 hr 2 min 49 sec) 
Heartbeat CPU  1 instructions:   28000000 cycles:   10836488 heartbeat IPC: 2.60125 cumulative IPC: 2.58386 (Simulation time: 0 hr 2 min 50 sec) 
Heartbeat CPU  3 instructions:   25000003 cycles:   10890059 heartbeat IPC: 2.30243 cumulative IPC: 2.29567 (Simulation time: 0 hr 2 min 51 sec) 
Heartbeat CPU  2 instructions:   28000000 cycles:   11219511 heartbeat IPC: 2.50670 cumulative IPC: 2.49565 (Simulation time: 0 hr 2 min 56 sec) 
Heartbeat CPU  0 instructions:   26000000 cycles:   11220324 heartbeat IPC: 2.48090 cumulative IPC: 2.31722 (Simulation time: 0 hr 2 min 56 sec) 
Heartbeat CPU  1 instructions:   29000000 cycles:   11223100 heartbeat IPC: 2.58657 cumulative IPC: 2.58396 (Simulation time: 0 hr 2 min 56 sec) 
Heartbeat CPU  3 instructions:   26000002 cycles:   11326193 heartbeat IPC: 2.29287 cumulative IPC: 2.29556 (Simulation time: 0 hr 2 min 58 sec) 
Heartbeat CPU  1 instructions:   30000002 cycles:   11611917 heartbeat IPC: 2.57191 cumulative IPC: 2.58355 (Simulation time: 0 hr 3 min 3 sec) 
Heartbeat CPU  2 instructions:   29000001 cycles:   11621260 heartbeat IPC: 2.48912 cumulative IPC: 2.49543 (Simulation time: 0 hr 3 min 3 sec) 
Heartbeat CPU  0 instructions:   27000000 cycles:   11633113 heartbeat IPC: 2.42255 cumulative IPC: 2.32096 (Simulation time: 0 hr 3 min 3 sec) 
Heartbeat CPU  3 instructions:   27000002 cycles:   11939253 heartbeat IPC: 1.63116 cumulative IPC: 2.26145 (Simulation time: 0 hr 3 min 7 sec) 
Heartbeat CPU  1 instructions:   31000002 cycles:   12002679 heartbeat IPC: 2.55910 cumulative IPC: 2.58276 (Simulation time: 0 hr 3 min 8 sec) 
Heartbeat CPU  2 instructions:   30000000 cycles:   12020502 heartbeat IPC: 2.50474 cumulative IPC: 2.49574 (Simulation time: 0 hr 3 min 9 sec) 
Heartbeat CPU  0 instructions:   28000000 cycles:   12042915 heartbeat IPC: 2.44020 cumulative IPC: 2.32502 (Simulation time: 0 hr 3 min 9 sec) 
Heartbeat CPU  3 instructions:   28000000 cycles:   12378467 heartbeat IPC: 2.27679 cumulative IPC: 2.26199 (Simulation time: 0 hr 3 min 14 sec) 
Heartbeat CPU  1 instructions:   32000000 cycles:   12391369 heartbeat IPC: 2.57274 cumulative IPC: 2.58244 (Simulation time: 0 hr 3 min 15 sec) 
Heartbeat CPU  2 instructions:   31000003 cycles:   12418481 heartbeat IPC: 2.51270 cumulative IPC: 2.49628 (Simulation time: 0 hr 3 min 15 sec) 
Heartbeat CPU  0 instructions:   29000000 cycles:   12452330 heartbeat IPC: 2.44251 cumulative IPC: 2.32888 (Simulation time: 0 hr 3 min 16 sec) 
Heartbeat CPU  1 instructions:   33000003 cycles:   12778834 heartbeat IPC: 2.58089 cumulative IPC: 2.58240 (Simulation time: 0 hr 3 min 21 sec) 
Heartbeat CPU  2 instructions:   32000000 cycles:   12817049 heartbeat IPC: 2.50897 cumulative IPC: 2.49667 (Simulation time: 0 hr 3 min 22 sec) 
Heartbeat CPU  3 instructions:   29000001 cycles:   12818085 heartbeat IPC: 2.27470 cumulative IPC: 2.26243 (Simulation time: 0 hr 3 min 22 sec) 
Heartbeat CPU  0 instructions:   30000002 cycles:   12859770 heartbeat IPC: 2.45435 cumulative IPC: 2.33286 (Simulation time: 0 hr 3 min 22 sec) 
Heartbeat CPU  1 instructions:   34000000 cycles:   13167120 heartbeat IPC: 2.57541 cumulative IPC: 2.58219 (Simulation time: 0 hr 3 min 27 sec) 
Heartbeat CPU  2 instructions:   33000003 cycles:   13216369 heartbeat IPC: 2.50426 cumulative IPC: 2.49690 (Simulation time: 0 hr 3 min 28 sec) 
Heartbeat CPU  3 instructions:   30000003 cycles:   13254952 heartbeat IPC: 2.28903 cumulative IPC: 2.26331 (Simulation time: 0 hr 3 min 29 sec) 
Heartbeat CPU  0 instructions:   31000002 cycles:   13269531 heartbeat IPC: 2.44045 cumulative IPC: 2.33618 (Simulation time: 0 hr 3 min 29 sec) 
Heartbeat CPU  1 instructions:   35000000 cycles:   13555881 heartbeat IPC: 2.57227 cumulative IPC: 2.58191 (Simulation time: 0 hr 3 min 34 sec) 
Heartbeat CPU  2 instructions:   34000001 cycles:   13616827 heartbeat IPC: 2.49714 cumulative IPC: 2.49691 (Simulation time: 0 hr 3 min 35 sec) 
Heartbeat CPU  0 instructions:   32000000 cycles:   13677878 heartbeat IPC: 2.44889 cumulative IPC: 2.33954 (Simulation time: 0 hr 3 min 36 sec) 
Heartbeat CPU  3 instructions:   31000000 cycles:   13705576 heartbeat IPC: 2.21914 cumulative IPC: 2.26185 (Simulation time: 0 hr 3 min 36 sec) 
Heartbeat CPU  1 instructions:   36000000 cycles:   13944357 heartbeat IPC: 2.57416 cumulative IPC: 2.58169 (Simulation time: 0 hr 3 min 40 sec) 
Heartbeat CPU  2 instructions:   35000003 cycles:   14016281 heartbeat IPC: 2.50342 cumulative IPC: 2.49710 (Simulation time: 0 hr 3 min 41 sec) 
Heartbeat CPU  0 instructions:   33000000 cycles:   14086410 heartbeat IPC: 2.44779 cumulative IPC: 2.34268 (Simulation time: 0 hr 3 min 42 sec) 
Heartbeat CPU  3 instructions:   32000000 cycles:   14159416 heartbeat IPC: 2.20342 cumulative IPC: 2.25998 (Simulation time: 0 hr 3 min 43 sec) 
Heartbeat CPU  1 instructions:   37000003 cycles:   14330503 heartbeat IPC: 2.58970 cumulative IPC: 2.58191 (Simulation time: 0 hr 3 min 46 sec) 
Heartbeat CPU  2 instructions:   36000000 cycles:   14419182 heartbeat IPC: 2.48199 cumulative IPC: 2.49667 (Simulation time: 0 hr 3 min 48 sec) 
Heartbeat CPU  0 instructions:   34000002 cycles:   14490946 heartbeat IPC: 2.47197 cumulative IPC: 2.34629 (Simulation time: 0 hr 3 min 49 sec) 
Heartbeat CPU  3 instructions:   33000000 cycles:   14598880 heartbeat IPC: 2.27550 cumulative IPC: 2.26045 (Simulation time: 0 hr 3 min 50 sec) 
Heartbeat CPU  1 instructions:   38000001 cycles:   14719787 heartbeat IPC: 2.56881 cumulative IPC: 2.58156 (Simulation time: 0 hr 3 min 52 sec) 
Heartbeat CPU  2 instructions:   37000002 cycles:   14817998 heartbeat IPC: 2.50743 cumulative IPC: 2.49696 (Simulation time: 0 hr 3 min 54 sec) 
Heartbeat CPU  0 instructions:   35000003 cycles:   14898518 heartbeat IPC: 2.45356 cumulative IPC: 2.34923 (Simulation time: 0 hr 3 min 56 sec) 
Heartbeat CPU  3 instructions:   34000002 cycles:   15045179 heartbeat IPC: 2.24065 cumulative IPC: 2.25986 (Simulation time: 0 hr 3 min 58 sec) 
Heartbeat CPU  1 instructions:   39000000 cycles:   15108752 heartbeat IPC: 2.57092 cumulative IPC: 2.58129 (Simulation time: 0 hr 3 min 59 sec) 
Heartbeat CPU  2 instructions:   38000003 cycles:   15219816 heartbeat IPC: 2.48869 cumulative IPC: 2.49675 (Simulation time: 0 hr 4 min 1 sec) 
Heartbeat CPU  0 instructions:   36000000 cycles:   15305059 heartbeat IPC: 2.45977 cumulative IPC: 2.35216 (Simulation time: 0 hr 4 min 2 sec) 
Heartbeat CPU  1 instructions:   40000000 cycles:   15496236 heartbeat IPC: 2.58075 cumulative IPC: 2.58127 (Simulation time: 0 hr 4 min 5 sec) 
Heartbeat CPU  3 instructions:   35000000 cycles:   15501950 heartbeat IPC: 2.18928 cumulative IPC: 2.25778 (Simulation time: 0 hr 4 min 6 sec) 
Heartbeat CPU  2 instructions:   39000000 cycles:   15617335 heartbeat IPC: 2.51560 cumulative IPC: 2.49723 (Simulation time: 0 hr 4 min 7 sec) 
Heartbeat CPU  0 instructions:   37000000 cycles:   15709934 heartbeat IPC: 2.46990 cumulative IPC: 2.35520 (Simulation time: 0 hr 4 min 9 sec) 
Heartbeat CPU  1 instructions:   41000001 cycles:   15884213 heartbeat IPC: 2.57748 cumulative IPC: 2.58118 (Simulation time: 0 hr 4 min 12 sec) 
Heartbeat CPU  3 instructions:   36000000 cycles:   15930982 heartbeat IPC: 2.33083 cumulative IPC: 2.25975 (Simulation time: 0 hr 4 min 13 sec) 
Heartbeat CPU  2 instructions:   40000000 cycles:   16020283 heartbeat IPC: 2.48171 cumulative IPC: 2.49683 (Simulation time: 0 hr 4 min 14 sec) 
Heartbeat CPU  0 instructions:   38000001 cycles:   16113361 heartbeat IPC: 2.47877 cumulative IPC: 2.35829 (Simulation time: 0 hr 4 min 16 sec) 
Heartbeat CPU  1 instructions:   42000001 cycles:   16270628 heartbeat IPC: 2.58789 cumulative IPC: 2.58134 (Simulation time: 0 hr 4 min 18 sec) 
Heartbeat CPU  2 instructions:   41000002 cycles:   16420350 heartbeat IPC: 2.49959 cumulative IPC: 2.49690 (Simulation time: 0 hr 4 min 21 sec) 
Heartbeat CPU  3 instructions:   37000001 cycles:   16431226 heartbeat IPC: 1.99903 cumulative IPC: 2.25181 (Simulation time: 0 hr 4 min 21 sec) 
Heartbeat CPU  0 instructions:   39000001 cycles:   16516424 heartbeat IPC: 2.48100 cumulative IPC: 2.36129 (Simulation time: 0 hr 4 min 22 sec) 
Heartbeat CPU  1 instructions:   43000003 cycles:   16657481 heartbeat IPC: 2.58497 cumulative IPC: 2.58142 (Simulation time: 0 hr 4 min 25 sec) 
Heartbeat CPU  2 instructions:   42000002 cycles:   16817254 heartbeat IPC: 2.51950 cumulative IPC: 2.49744 (Simulation time: 0 hr 4 min 27 sec) 
Heartbeat CPU  3 instructions:   38000000 cycles:   16857938 heartbeat IPC: 2.34350 cumulative IPC: 2.25413 (Simulation time: 0 hr 4 min 28 sec) 
Heartbeat CPU  0 instructions:   40000000 cycles:   16917130 heartbeat IPC: 2.49559 cumulative IPC: 2.36447 (Simulation time: 0 hr 4 min 29 sec) 
Heartbeat CPU  1 instructions:   44000000 cycles:   17043591 heartbeat IPC: 2.58993 cumulative IPC: 2.58162 (Simulation time: 0 hr 4 min 31 sec) 
Heartbeat CPU  2 instructions:   43000000 cycles:   17218244 heartbeat IPC: 2.49382 cumulative IPC: 2.49735 (Simulation time: 0 hr 4 min 34 sec) 
Heartbeat CPU  3 instructions:   39000002 cycles:   17294718 heartbeat IPC: 2.28949 cumulative IPC: 2.25502 (Simulation time: 0 hr 4 min 35 sec) 
Heartbeat CPU  0 instructions:   41000000 cycles:   17331417 heartbeat IPC: 2.41379 cumulative IPC: 2.36565 (Simulation time: 0 hr 4 min 36 sec) 
Heartbeat CPU  1 instructions:   45000002 cycles:   17430619 heartbeat IPC: 2.58380 cumulative IPC: 2.58166 (Simulation time: 0 hr 4 min 38 sec) 
Heartbeat CPU  2 instructions:   44000000 cycles:   17617980 heartbeat IPC: 2.50165 cumulative IPC: 2.49745 (Simulation time: 0 hr 4 min 41 sec) 
Heartbeat CPU  3 instructions:   40000000 cycles:   17729363 heartbeat IPC: 2.30072 cumulative IPC: 2.25614 (Simulation time: 0 hr 4 min 42 sec) 
Heartbeat CPU  0 instructions:   42000001 cycles:   17743597 heartbeat IPC: 2.42613 cumulative IPC: 2.36705 (Simulation time: 0 hr 4 min 43 sec) 
Heartbeat CPU  1 instructions:   46000002 cycles:   17819774 heartbeat IPC: 2.56967 cumulative IPC: 2.58140 (Simulation time: 0 hr 4 min 44 sec) 
Heartbeat CPU  2 instructions:   45000001 cycles:   18014437 heartbeat IPC: 2.52234 cumulative IPC: 2.49800 (Simulation time: 0 hr 4 min 47 sec) 
Heartbeat CPU  0 instructions:   43000002 cycles:   18155331 heartbeat IPC: 2.42876 cumulative IPC: 2.36845 (Simulation time: 0 hr 4 min 49 sec) 
Heartbeat CPU  3 instructions:   41000000 cycles:   18165172 heartbeat IPC: 2.29458 cumulative IPC: 2.25707 (Simulation time: 0 hr 4 min 50 sec) 
Heartbeat CPU  1 instructions:   47000001 cycles:   18209238 heartbeat IPC: 2.56763 cumulative IPC: 2.58111 (Simulation time: 0 hr 4 min 50 sec) 
Heartbeat CPU  2 instructions:   46000000 cycles:   18411874 heartbeat IPC: 2.51612 cumulative IPC: 2.49839 (Simulation time: 0 hr 4 min 54 sec) 
Heartbeat CPU  0 instructions:   44000000 cycles:   18572111 heartbeat IPC: 2.39934 cumulative IPC: 2.36914 (Simulation time: 0 hr 4 min 56 sec) 
Heartbeat CPU  1 instructions:   48000000 cycles:   18599209 heartbeat IPC: 2.56429 cumulative IPC: 2.58075 (Simulation time: 0 hr 4 min 56 sec) 
Heartbeat CPU  3 instructions:   42000003 cycles:   18772745 heartbeat IPC: 1.64590 cumulative IPC: 2.23729 (Simulation time: 0 hr 4 min 59 sec) 
Heartbeat CPU  2 instructions:   47000001 cycles:   18812432 heartbeat IPC: 2.49652 cumulative IPC: 2.49835 (Simulation time: 0 hr 4 min 59 sec) 
Heartbeat CPU  1 instructions:   49000001 cycles:   18989012 heartbeat IPC: 2.56540 cumulative IPC: 2.58044 (Simulation time: 0 hr 5 min 2 sec) 
Heartbeat CPU  0 instructions:   45000002 cycles:   18995128 heartbeat IPC: 2.36398 cumulative IPC: 2.36903 (Simulation time: 0 hr 5 min 2 sec) 
Heartbeat CPU  2 instructions:   48000000 cycles:   19210253 heartbeat IPC: 2.51369 cumulative IPC: 2.49867 (Simulation time: 0 hr 5 min 6 sec) 
Heartbeat CPU  3 instructions:   43000000 cycles:   19213894 heartbeat IPC: 2.26680 cumulative IPC: 2.23796 (Simulation time: 0 hr 5 min 6 sec) 
Heartbeat CPU  1 instructions:   50000002 cycles:   19377940 heartbeat IPC: 2.57117 cumulative IPC: 2.58025 (Simulation time: 0 hr 5 min 8 sec) 
Heartbeat CPU  0 instructions:   46000003 cycles:   19421087 heartbeat IPC: 2.34765 cumulative IPC: 2.36856 (Simulation time: 0 hr 5 min 9 sec) 
Heartbeat CPU  2 instructions:   49000001 cycles:   19611142 heartbeat IPC: 2.49446 cumulative IPC: 2.49858 (Simulation time: 0 hr 5 min 12 sec) 
Heartbeat CPU  3 instructions:   44000000 cycles:   19652621 heartbeat IPC: 2.27932 cumulative IPC: 2.23889 (Simulation time: 0 hr 5 min 13 sec) 
Heartbeat CPU  1 instructions:   51000000 cycles:   19768131 heartbeat IPC: 2.56284 cumulative IPC: 0.05059 (Simulation time: 0 hr 5 min 14 sec) 
Heartbeat CPU  0 instructions:   47000002 cycles:   19863395 heartbeat IPC: 2.26087 cumulative IPC: 2.36616 (Simulation time: 0 hr 5 min 16 sec) 
Heartbeat CPU  2 instructions:   50000001 cycles:   20009267 heartbeat IPC: 2.51177 cumulative IPC: 2.49884 (Simulation time: 0 hr 5 min 18 sec) 
Heartbeat CPU  3 instructions:   45000001 cycles:   20091923 heartbeat IPC: 2.27634 cumulative IPC: 2.23971 (Simulation time: 0 hr 5 min 20 sec) 
Heartbeat CPU  1 instructions:   52000000 cycles:   20158448 heartbeat IPC: 2.56202 cumulative IPC: 0.09921 (Simulation time: 0 hr 5 min 21 sec) 
Heartbeat CPU  0 instructions:   48000000 cycles:   20307342 heartbeat IPC: 2.25252 cumulative IPC: 2.36368 (Simulation time: 0 hr 5 min 23 sec) 
Heartbeat CPU  2 instructions:   51000000 cycles:   20406636 heartbeat IPC: 2.51655 cumulative IPC: 0.04900 (Simulation time: 0 hr 5 min 24 sec) 
Heartbeat CPU  1 instructions:   53000003 cycles:   20542611 heartbeat IPC: 2.60307 cumulative IPC: 0.14604 (Simulation time: 0 hr 5 min 26 sec) 
Heartbeat CPU  3 instructions:   46000001 cycles:   20545577 heartbeat IPC: 2.20432 cumulative IPC: 2.23892 (Simulation time: 0 hr 5 min 26 sec) 
Heartbeat CPU  0 instructions:   49000001 cycles:   20707427 heartbeat IPC: 2.49947 cumulative IPC: 2.36630 (Simulation time: 0 hr 5 min 29 sec) 
Heartbeat CPU  2 instructions:   52000000 cycles:   20803736 heartbeat IPC: 2.51826 cumulative IPC: 0.09614 (Simulation time: 0 hr 5 min 30 sec) 
Heartbeat CPU  1 instructions:   54000002 cycles:   20928293 heartbeat IPC: 2.59281 cumulative IPC: 0.19113 (Simulation time: 0 hr 5 min 32 sec) 
Heartbeat CPU  3 instructions:   47000000 cycles:   20993011 heartbeat IPC: 2.23496 cumulative IPC: 2.23884 (Simulation time: 0 hr 5 min 33 sec) 
Heartbeat CPU  0 instructions:   50000003 cycles:   21105073 heartbeat IPC: 2.51480 cumulative IPC: 2.36910 (Simulation time: 0 hr 5 min 35 sec) 
Heartbeat CPU  2 instructions:   53000001 cycles:   21201882 heartbeat IPC: 2.51164 cumulative IPC: 0.14150 (Simulation time: 0 hr 5 min 37 sec) 
Heartbeat CPU  1 instructions:   55000002 cycles:   21316649 heartbeat IPC: 2.57496 cumulative IPC: 0.23456 (Simulation time: 0 hr 5 min 38 sec) 
Heartbeat CPU  3 instructions:   48000000 cycles:   21435361 heartbeat IPC: 2.26065 cumulative IPC: 2.23929 (Simulation time: 0 hr 5 min 40 sec) 
Heartbeat CPU  0 instructions:   51000001 cycles:   21495591 heartbeat IPC: 2.56070 cumulative IPC: 0.04652 (Simulation time: 0 hr 5 min 41 sec) 
Heartbeat CPU  2 instructions:   54000000 cycles:   21600020 heartbeat IPC: 2.51169 cumulative IPC: 0.18519 (Simulation time: 0 hr 5 min 43 sec) 
Heartbeat CPU  1 instructions:   56000000 cycles:   21705376 heartbeat IPC: 2.57249 cumulative IPC: 0.27643 (Simulation time: 0 hr 5 min 45 sec) 
Heartbeat CPU  3 instructions:   49000000 cycles:   21878509 heartbeat IPC: 2.25658 cumulative IPC: 2.23964 (Simulation time: 0 hr 5 min 47 sec) 
Heartbeat CPU  0 instructions:   52000000 cycles:   21901789 heartbeat IPC: 2.46185 cumulative IPC: 0.09132 (Simulation time: 0 hr 5 min 48 sec) 
Heartbeat CPU  2 instructions:   55000001 cycles:   21998412 heartbeat IPC: 2.51009 cumulative IPC: 0.22729 (Simulation time: 0 hr 5 min 49 sec) 
Heartbeat CPU  1 instructions:   57000000 cycles:   22093884 heartbeat IPC: 2.57395 cumulative IPC: 0.31683 (Simulation time: 0 hr 5 min 51 sec) 
Heartbeat CPU  0 instructions:   53000003 cycles:   22289088 heartbeat IPC: 2.58199 cumulative IPC: 0.13460 (Simulation time: 0 hr 5 min 54 sec) 
Heartbeat CPU  3 instructions:   50000000 cycles:   22329703 heartbeat IPC: 2.21634 cumulative IPC: 2.23917 (Simulation time: 0 hr 5 min 55 sec) 

Warmup complete CPU  0 instructions:   53104579 cycles:   22329704 (Simulation time: 0 hr 5 min 55 sec) 
Warmup complete CPU  1 instructions:   57605786 cycles:   22329704 (Simulation time: 0 hr 5 min 55 sec) 
Warmup complete CPU  2 instructions:   55830420 cycles:   22329703 (Simulation time: 0 hr 5 min 55 sec) 
Warmup complete CPU  3 instructions:   50000004 cycles:   22329704 (Simulation time: 0 hr 5 min 55 sec) 

Heartbeat CPU  2 instructions:   56000000 cycles:   23467935 heartbeat IPC: 0.68049 cumulative IPC: 0.14899 (Simulation time: 0 hr 5 min 56 sec) 
Heartbeat CPU  1 instructions:   58000001 cycles:   24980803 heartbeat IPC: 0.34639 cumulative IPC: 0.14870 (Simulation time: 0 hr 5 min 58 sec) 
Heartbeat CPU  0 instructions:   54000002 cycles:   27864679 heartbeat IPC: 0.17935 cumulative IPC: 0.16178 (Simulation time: 0 hr 6 min 3 sec) 
Heartbeat CPU  2 instructions:   57000000 cycles:   30193891 heartbeat IPC: 0.14868 cumulative IPC: 0.14872 (Simulation time: 0 hr 6 min 6 sec) 
Heartbeat CPU  3 instructions:   51000003 cycles:   30809422 heartbeat IPC: 0.11793 cumulative IPC: 0.11793 (Simulation time: 0 hr 6 min 7 sec) 
Heartbeat CPU  1 instructions:   59000003 cycles:   31671605 heartbeat IPC: 0.14946 cumulative IPC: 0.14924 (Simulation time: 0 hr 6 min 8 sec) 
Heartbeat CPU  0 instructions:   55000003 cycles:   34032467 heartbeat IPC: 0.16213 cumulative IPC: 0.16196 (Simulation time: 0 hr 6 min 12 sec) 
Heartbeat CPU  2 instructions:   58000001 cycles:   36924451 heartbeat IPC: 0.14858 cumulative IPC: 0.14865 (Simulation time: 0 hr 6 min 16 sec) 
Heartbeat CPU  1 instructions:   60000000 cycles:   38353873 heartbeat IPC: 0.14965 cumulative IPC: 0.14941 (Simulation time: 0 hr 6 min 18 sec) 
Heartbeat CPU  3 instructions:   52000000 cycles:   39283818 heartbeat IPC: 0.11800 cumulative IPC: 0.11797 (Simulation time: 0 hr 6 min 19 sec) 
Heartbeat CPU  0 instructions:   56000000 cycles:   39952131 heartbeat IPC: 0.16893 cumulative IPC: 0.16430 (Simulation time: 0 hr 6 min 20 sec) 
Heartbeat CPU  2 instructions:   59000002 cycles:   43654447 heartbeat IPC: 0.14859 cumulative IPC: 0.14863 (Simulation time: 0 hr 6 min 26 sec) 
Heartbeat CPU  1 instructions:   61000002 cycles:   44992525 heartbeat IPC: 0.15063 cumulative IPC: 0.14977 (Simulation time: 0 hr 6 min 28 sec) 
Heartbeat CPU  0 instructions:   57000003 cycles:   45942547 heartbeat IPC: 0.16693 cumulative IPC: 0.16497 (Simulation time: 0 hr 6 min 29 sec) 
Heartbeat CPU  3 instructions:   53000002 cycles:   47791930 heartbeat IPC: 0.11754 cumulative IPC: 0.11782 (Simulation time: 0 hr 6 min 32 sec) 
Heartbeat CPU  2 instructions:   60000000 cycles:   50388573 heartbeat IPC: 0.14850 cumulative IPC: 0.14860 (Simulation time: 0 hr 6 min 35 sec) 
Heartbeat CPU  1 instructions:   62000003 cycles:   51689069 heartbeat IPC: 0.14933 cumulative IPC: 0.14967 (Simulation time: 0 hr 6 min 37 sec) 
Heartbeat CPU  0 instructions:   58000003 cycles:   52027795 heartbeat IPC: 0.16433 cumulative IPC: 0.16484 (Simulation time: 0 hr 6 min 38 sec) 
Heartbeat CPU  3 instructions:   54000001 cycles:   56308018 heartbeat IPC: 0.11742 cumulative IPC: 0.11772 (Simulation time: 0 hr 6 min 44 sec) 
Heartbeat CPU  2 instructions:   61000000 cycles:   57123315 heartbeat IPC: 0.14848 cumulative IPC: 0.14858 (Simulation time: 0 hr 6 min 45 sec) 
Heartbeat CPU  0 instructions:   59000000 cycles:   58163247 heartbeat IPC: 0.16299 cumulative IPC: 0.16452 (Simulation time: 0 hr 6 min 47 sec) 
Heartbeat CPU  1 instructions:   63000002 cycles:   58388987 heartbeat IPC: 0.14926 cumulative IPC: 0.14959 (Simulation time: 0 hr 6 min 47 sec) 
Heartbeat CPU  2 instructions:   62000002 cycles:   63833650 heartbeat IPC: 0.14902 cumulative IPC: 0.14865 (Simulation time: 0 hr 6 min 55 sec) 
Heartbeat CPU  0 instructions:   60000000 cycles:   64265746 heartbeat IPC: 0.16387 cumulative IPC: 0.16443 (Simulation time: 0 hr 6 min 55 sec) 
Heartbeat CPU  3 instructions:   55000001 cycles:   64856336 heartbeat IPC: 0.11698 cumulative IPC: 0.11757 (Simulation time: 0 hr 6 min 56 sec) 
Heartbeat CPU  1 instructions:   64000000 cycles:   65042222 heartbeat IPC: 0.15030 cumulative IPC: 0.14970 (Simulation time: 0 hr 6 min 57 sec) 
Heartbeat CPU  0 instructions:   61000000 cycles:   70314128 heartbeat IPC: 0.16533 cumulative IPC: 0.16454 (Simulation time: 0 hr 7 min 4 sec) 
Heartbeat CPU  2 instructions:   63000000 cycles:   70560500 heartbeat IPC: 0.14866 cumulative IPC: 0.14865 (Simulation time: 0 hr 7 min 5 sec) 
Heartbeat CPU  1 instructions:   65000003 cycles:   71701286 heartbeat IPC: 0.15017 cumulative IPC: 0.14977 (Simulation time: 0 hr 7 min 6 sec) 
Heartbeat CPU  3 instructions:   56000000 cycles:   73405729 heartbeat IPC: 0.11697 cumulative IPC: 0.11747 (Simulation time: 0 hr 7 min 9 sec) 
Heartbeat CPU  0 instructions:   62000001 cycles:   76484932 heartbeat IPC: 0.16205 cumulative IPC: 0.16426 (Simulation time: 0 hr 7 min 13 sec) 
Heartbeat CPU  2 instructions:   64000000 cycles:   77327398 heartbeat IPC: 0.14778 cumulative IPC: 0.14854 (Simulation time: 0 hr 7 min 14 sec) 
Heartbeat CPU  1 instructions:   66000003 cycles:   78428406 heartbeat IPC: 0.14865 cumulative IPC: 0.14963 (Simulation time: 0 hr 7 min 16 sec) 
Heartbeat CPU  3 instructions:   57000003 cycles:   82180763 heartbeat IPC: 0.11396 cumulative IPC: 0.11696 (Simulation time: 0 hr 7 min 21 sec) 
Heartbeat CPU  0 instructions:   63000001 cycles:   82245741 heartbeat IPC: 0.17359 cumulative IPC: 0.16515 (Simulation time: 0 hr 7 min 22 sec) 
Heartbeat CPU  2 instructions:   65000002 cycles:   84051795 heartbeat IPC: 0.14871 cumulative IPC: 0.14856 (Simulation time: 0 hr 7 min 24 sec) 
Heartbeat CPU  1 instructions:   67000001 cycles:   85237770 heartbeat IPC: 0.14686 cumulative IPC: 0.14933 (Simulation time: 0 hr 7 min 26 sec) 
Heartbeat CPU  0 instructions:   64000000 cycles:   89755419 heartbeat IPC: 0.13316 cumulative IPC: 0.16159 (Simulation time: 0 hr 7 min 32 sec) 
Heartbeat CPU  3 instructions:   58000002 cycles:   90702441 heartbeat IPC: 0.11735 cumulative IPC: 0.11701 (Simulation time: 0 hr 7 min 33 sec) 
Heartbeat CPU  2 instructions:   66000000 cycles:   90803446 heartbeat IPC: 0.14811 cumulative IPC: 0.14852 (Simulation time: 0 hr 7 min 33 sec) 
Heartbeat CPU  1 instructions:   68000000 cycles:   92014217 heartbeat IPC: 0.14757 cumulative IPC: 0.14916 (Simulation time: 0 hr 7 min 35 sec) 
Heartbeat CPU  0 instructions:   65000000 cycles:   95555859 heartbeat IPC: 0.17240 cumulative IPC: 0.16245 (Simulation time: 0 hr 7 min 40 sec) 
Heartbeat CPU  2 instructions:   67000000 cycles:   97543212 heartbeat IPC: 0.14837 cumulative IPC: 0.14850 (Simulation time: 0 hr 7 min 44 sec) 
Heartbeat CPU  1 instructions:   69000003 cycles:   98819728 heartbeat IPC: 0.14694 cumulative IPC: 0.14896 (Simulation time: 0 hr 7 min 45 sec) 
Heartbeat CPU  3 instructions:   59000003 cycles:   99249167 heartbeat IPC: 0.11700 cumulative IPC: 0.11701 (Simulation time: 0 hr 7 min 46 sec) 
Heartbeat CPU  0 instructions:   66000001 cycles:  100708571 heartbeat IPC: 0.19407 cumulative IPC: 0.16453 (Simulation time: 0 hr 7 min 48 sec) 
Heartbeat CPU  2 instructions:   68000000 cycles:  104361933 heartbeat IPC: 0.14666 cumulative IPC: 0.14835 (Simulation time: 0 hr 7 min 53 sec) 
Heartbeat CPU  3 instructions:   60000000 cycles:  105538335 heartbeat IPC: 0.15900 cumulative IPC: 0.12018 (Simulation time: 0 hr 7 min 55 sec) 
Heartbeat CPU  1 instructions:   70000002 cycles:  105620110 heartbeat IPC: 0.14705 cumulative IPC: 0.14881 (Simulation time: 0 hr 7 min 55 sec) 
Heartbeat CPU  0 instructions:   67000003 cycles:  108231118 heartbeat IPC: 0.13293 cumulative IPC: 0.16176 (Simulation time: 0 hr 8 min 0 sec) 
Heartbeat CPU  3 instructions:   61000001 cycles:  110258224 heartbeat IPC: 0.21187 cumulative IPC: 0.12510 (Simulation time: 0 hr 8 min 3 sec) 
Heartbeat CPU  2 instructions:   69000000 cycles:  111163454 heartbeat IPC: 0.14703 cumulative IPC: 0.14825 (Simulation time: 0 hr 8 min 5 sec) 
Heartbeat CPU  0 instructions:   68000000 cycles:  111289797 heartbeat IPC: 0.32694 cumulative IPC: 0.16744 (Simulation time: 0 hr 8 min 5 sec) 
Heartbeat CPU  1 instructions:   71000003 cycles:  112381798 heartbeat IPC: 0.14789 cumulative IPC: 0.14874 (Simulation time: 0 hr 8 min 7 sec) 
Heartbeat CPU  3 instructions:   62000003 cycles:  117385179 heartbeat IPC: 0.14031 cumulative IPC: 0.12624 (Simulation time: 0 hr 8 min 14 sec) 
Heartbeat CPU  2 instructions:   70000000 cycles:  117966070 heartbeat IPC: 0.14700 cumulative IPC: 0.14816 (Simulation time: 0 hr 8 min 15 sec) 
Heartbeat CPU  0 instructions:   69000003 cycles:  118822411 heartbeat IPC: 0.13276 cumulative IPC: 0.16473 (Simulation time: 0 hr 8 min 16 sec) 
Heartbeat CPU  1 instructions:   72000000 cycles:  119144613 heartbeat IPC: 0.14787 cumulative IPC: 0.14868 (Simulation time: 0 hr 8 min 16 sec) 
Heartbeat CPU  0 instructions:   70000001 cycles:  123738091 heartbeat IPC: 0.20343 cumulative IPC: 0.16661 (Simulation time: 0 hr 8 min 23 sec) 
Heartbeat CPU  2 instructions:   71000001 cycles:  124775854 heartbeat IPC: 0.14685 cumulative IPC: 0.14807 (Simulation time: 0 hr 8 min 25 sec) 
Heartbeat CPU  3 instructions:   63000000 cycles:  125713821 heartbeat IPC: 0.12007 cumulative IPC: 0.12574 (Simulation time: 0 hr 8 min 26 sec) 
Heartbeat CPU  1 instructions:   73000001 cycles:  125880660 heartbeat IPC: 0.14846 cumulative IPC: 0.14866 (Simulation time: 0 hr 8 min 27 sec) 
Heartbeat CPU  0 instructions:   71000001 cycles:  129380627 heartbeat IPC: 0.17723 cumulative IPC: 0.16717 (Simulation time: 0 hr 8 min 31 sec) 
Heartbeat CPU  2 instructions:   72000000 cycles:  131542317 heartbeat IPC: 0.14779 cumulative IPC: 0.14806 (Simulation time: 0 hr 8 min 34 sec) 
Heartbeat CPU  1 instructions:   74000003 cycles:  132629864 heartbeat IPC: 0.14817 cumulative IPC: 0.14863 (Simulation time: 0 hr 8 min 36 sec) 
Heartbeat CPU  3 instructions:   64000000 cycles:  134074552 heartbeat IPC: 0.11961 cumulative IPC: 0.12529 (Simulation time: 0 hr 8 min 38 sec) 
Heartbeat CPU  0 instructions:   72000000 cycles:  136747893 heartbeat IPC: 0.13574 cumulative IPC: 0.16514 (Simulation time: 0 hr 8 min 42 sec) 
Heartbeat CPU  2 instructions:   73000002 cycles:  138314285 heartbeat IPC: 0.14767 cumulative IPC: 0.14803 (Simulation time: 0 hr 8 min 45 sec) 
Heartbeat CPU  1 instructions:   75000003 cycles:  139316641 heartbeat IPC: 0.14955 cumulative IPC: 0.14869 (Simulation time: 0 hr 8 min 46 sec) 
Heartbeat CPU  0 instructions:   73000003 cycles:  139917070 heartbeat IPC: 0.31554 cumulative IPC: 0.16920 (Simulation time: 0 hr 8 min 47 sec) 
Heartbeat CPU  3 instructions:   65000003 cycles:  142474798 heartbeat IPC: 0.11904 cumulative IPC: 0.12485 (Simulation time: 0 hr 8 min 51 sec) 
Heartbeat CPU  2 instructions:   74000001 cycles:  145079039 heartbeat IPC: 0.14782 cumulative IPC: 0.14802 (Simulation time: 0 hr 8 min 54 sec) 
Heartbeat CPU  1 instructions:   76000000 cycles:  146023841 heartbeat IPC: 0.14909 cumulative IPC: 0.14871 (Simulation time: 0 hr 8 min 56 sec) 
Heartbeat CPU  0 instructions:   74000002 cycles:  147428212 heartbeat IPC: 0.13314 cumulative IPC: 0.16703 (Simulation time: 0 hr 8 min 58 sec) 
Heartbeat CPU  3 instructions:   66000003 cycles:  150868553 heartbeat IPC: 0.11914 cumulative IPC: 0.12448 (Simulation time: 0 hr 9 min 3 sec) 
Heartbeat CPU  0 instructions:   75000003 cycles:  151235544 heartbeat IPC: 0.26265 cumulative IPC: 0.16986 (Simulation time: 0 hr 9 min 4 sec) 
Heartbeat CPU  2 instructions:   75000002 cycles:  151865157 heartbeat IPC: 0.14736 cumulative IPC: 0.14799 (Simulation time: 0 hr 9 min 5 sec) 
Heartbeat CPU  1 instructions:   77000000 cycles:  152764676 heartbeat IPC: 0.14835 cumulative IPC: 0.14869 (Simulation time: 0 hr 9 min 6 sec) 
Heartbeat CPU  0 instructions:   76000000 cycles:  156753016 heartbeat IPC: 0.18124 cumulative IPC: 0.17032 (Simulation time: 0 hr 9 min 12 sec) 
Heartbeat CPU  2 instructions:   76000000 cycles:  158634055 heartbeat IPC: 0.14773 cumulative IPC: 0.14797 (Simulation time: 0 hr 9 min 14 sec) 
Heartbeat CPU  3 instructions:   67000003 cycles:  159290264 heartbeat IPC: 0.11874 cumulative IPC: 0.12412 (Simulation time: 0 hr 9 min 15 sec) 
Heartbeat CPU  1 instructions:   78000000 cycles:  159515878 heartbeat IPC: 0.14812 cumulative IPC: 0.14866 (Simulation time: 0 hr 9 min 16 sec) 
Heartbeat CPU  0 instructions:   77000003 cycles:  162577117 heartbeat IPC: 0.17170 cumulative IPC: 0.17038 (Simulation time: 0 hr 9 min 20 sec) 
Heartbeat CPU  2 instructions:   77000001 cycles:  165417485 heartbeat IPC: 0.14742 cumulative IPC: 0.14795 (Simulation time: 0 hr 9 min 24 sec) 
Heartbeat CPU  1 instructions:   79000003 cycles:  166176740 heartbeat IPC: 0.15013 cumulative IPC: 0.14873 (Simulation time: 0 hr 9 min 25 sec) 
Heartbeat CPU  3 instructions:   68000000 cycles:  167666838 heartbeat IPC: 0.11938 cumulative IPC: 0.12385 (Simulation time: 0 hr 9 min 27 sec) 
Heartbeat CPU  0 instructions:   78000003 cycles:  168204253 heartbeat IPC: 0.17771 cumulative IPC: 0.17066 (Simulation time: 0 hr 9 min 28 sec) 
Heartbeat CPU  2 instructions:   78000001 cycles:  172191171 heartbeat IPC: 0.14763 cumulative IPC: 0.14793 (Simulation time: 0 hr 9 min 34 sec) 
Heartbeat CPU  1 instructions:   80000000 cycles:  172877689 heartbeat IPC: 0.14923 cumulative IPC: 0.14875 (Simulation time: 0 hr 9 min 35 sec) 
Heartbeat CPU  0 instructions:   79000001 cycles:  175632268 heartbeat IPC: 0.13463 cumulative IPC: 0.16892 (Simulation time: 0 hr 9 min 39 sec) 
Heartbeat CPU  3 instructions:   69000000 cycles:  176112469 heartbeat IPC: 0.11840 cumulative IPC: 0.12355 (Simulation time: 0 hr 9 min 39 sec) 
Heartbeat CPU  2 instructions:   79000001 cycles:  178966702 heartbeat IPC: 0.14759 cumulative IPC: 0.14792 (Simulation time: 0 hr 9 min 43 sec) 
Heartbeat CPU  1 instructions:   81000000 cycles:  179503647 heartbeat IPC: 0.15092 cumulative IPC: 0.14884 (Simulation time: 0 hr 9 min 44 sec) 
Heartbeat CPU  0 instructions:   80000000 cycles:  183887408 heartbeat IPC: 0.12114 cumulative IPC: 0.16648 (Simulation time: 0 hr 9 min 50 sec) 
Heartbeat CPU  3 instructions:   70000003 cycles:  184566207 heartbeat IPC: 0.11829 cumulative IPC: 0.12328 (Simulation time: 0 hr 9 min 51 sec) 
Heartbeat CPU  2 instructions:   80000000 cycles:  185757818 heartbeat IPC: 0.14725 cumulative IPC: 0.14789 (Simulation time: 0 hr 9 min 53 sec) 
Heartbeat CPU  1 instructions:   82000001 cycles:  186125594 heartbeat IPC: 0.15101 cumulative IPC: 0.14893 (Simulation time: 0 hr 9 min 53 sec) 
Heartbeat CPU  0 instructions:   81000001 cycles:  192182054 heartbeat IPC: 0.12056 cumulative IPC: 0.16423 (Simulation time: 0 hr 10 min 2 sec) 
Heartbeat CPU  2 instructions:   81000000 cycles:  192564247 heartbeat IPC: 0.14692 cumulative IPC: 0.14785 (Simulation time: 0 hr 10 min 2 sec) 
Heartbeat CPU  1 instructions:   83000003 cycles:  192742676 heartbeat IPC: 0.15112 cumulative IPC: 0.14902 (Simulation time: 0 hr 10 min 2 sec) 
Heartbeat CPU  3 instructions:   71000001 cycles:  193373569 heartbeat IPC: 0.11354 cumulative IPC: 0.12278 (Simulation time: 0 hr 10 min 3 sec) 
Heartbeat CPU  2 instructions:   82000002 cycles:  199329875 heartbeat IPC: 0.14781 cumulative IPC: 0.14785 (Simulation time: 0 hr 10 min 12 sec) 
Heartbeat CPU  1 instructions:   84000000 cycles:  199397763 heartbeat IPC: 0.15026 cumulative IPC: 0.14906 (Simulation time: 0 hr 10 min 12 sec) 
Heartbeat CPU  0 instructions:   82000001 cycles:  200363828 heartbeat IPC: 0.12222 cumulative IPC: 0.16230 (Simulation time: 0 hr 10 min 13 sec) 
Heartbeat CPU  3 instructions:   72000000 cycles:  201786538 heartbeat IPC: 0.11886 cumulative IPC: 0.12259 (Simulation time: 0 hr 10 min 15 sec) 
Heartbeat CPU  1 instructions:   85000001 cycles:  206049020 heartbeat IPC: 0.15035 cumulative IPC: 0.14911 (Simulation time: 0 hr 10 min 21 sec) 
Heartbeat CPU  2 instructions:   83000002 cycles:  206120950 heartbeat IPC: 0.14725 cumulative IPC: 0.14783 (Simulation time: 0 hr 10 min 21 sec) 
Heartbeat CPU  0 instructions:   83000000 cycles:  208673652 heartbeat IPC: 0.12034 cumulative IPC: 0.16043 (Simulation time: 0 hr 10 min 25 sec) 
Heartbeat CPU  3 instructions:   73000001 cycles:  210211207 heartbeat IPC: 0.11870 cumulative IPC: 0.12242 (Simulation time: 0 hr 10 min 27 sec) 
Heartbeat CPU  1 instructions:   86000001 cycles:  212679091 heartbeat IPC: 0.15083 cumulative IPC: 0.14917 (Simulation time: 0 hr 10 min 30 sec) 
Heartbeat CPU  2 instructions:   84000000 cycles:  212889196 heartbeat IPC: 0.14775 cumulative IPC: 0.14783 (Simulation time: 0 hr 10 min 30 sec) 
Heartbeat CPU  0 instructions:   84000000 cycles:  216876338 heartbeat IPC: 0.12191 cumulative IPC: 0.15881 (Simulation time: 0 hr 10 min 36 sec) 
Heartbeat CPU  3 instructions:   74000002 cycles:  218672125 heartbeat IPC: 0.11819 cumulative IPC: 0.12224 (Simulation time: 0 hr 10 min 38 sec) 
Heartbeat CPU  1 instructions:   87000001 cycles:  219352351 heartbeat IPC: 0.14985 cumulative IPC: 0.14919 (Simulation time: 0 hr 10 min 39 sec) 
Heartbeat CPU  2 instructions:   85000000 cycles:  219693428 heartbeat IPC: 0.14697 cumulative IPC: 0.14780 (Simulation time: 0 hr 10 min 40 sec) 
Heartbeat CPU  3 instructions:   75000002 cycles:  223693874 heartbeat IPC: 0.19913 cumulative IPC: 0.12415 (Simulation time: 0 hr 10 min 46 sec) 
Heartbeat CPU  0 instructions:   85000002 cycles:  225231308 heartbeat IPC: 0.11969 cumulative IPC: 0.15720 (Simulation time: 0 hr 10 min 49 sec) 
Heartbeat CPU  1 instructions:   88000000 cycles:  225994733 heartbeat IPC: 0.15055 cumulative IPC: 0.14924 (Simulation time: 0 hr 10 min 50 sec) 
Heartbeat CPU  2 instructions:   86000000 cycles:  226452453 heartbeat IPC: 0.14795 cumulative IPC: 0.14780 (Simulation time: 0 hr 10 min 51 sec) 
Heartbeat CPU  3 instructions:   76000000 cycles:  228727054 heartbeat IPC: 0.19868 cumulative IPC: 0.12597 (Simulation time: 0 hr 10 min 54 sec) 
Heartbeat CPU  1 instructions:   89000000 cycles:  232604011 heartbeat IPC: 0.15130 cumulative IPC: 0.14930 (Simulation time: 0 hr 10 min 59 sec) 
Heartbeat CPU  2 instructions:   87000003 cycles:  233239290 heartbeat IPC: 0.14734 cumulative IPC: 0.14779 (Simulation time: 0 hr 11 min 0 sec) 
Heartbeat CPU  0 instructions:   86000003 cycles:  233543504 heartbeat IPC: 0.12031 cumulative IPC: 0.15574 (Simulation time: 0 hr 11 min 1 sec) 
Heartbeat CPU  3 instructions:   77000002 cycles:  236705784 heartbeat IPC: 0.12533 cumulative IPC: 0.12595 (Simulation time: 0 hr 11 min 5 sec) 
Heartbeat CPU  1 instructions:   90000000 cycles:  239219612 heartbeat IPC: 0.15116 cumulative IPC: 0.14936 (Simulation time: 0 hr 11 min 9 sec) 
Heartbeat CPU  2 instructions:   88000000 cycles:  239969365 heartbeat IPC: 0.14859 cumulative IPC: 0.14781 (Simulation time: 0 hr 11 min 10 sec) 
Heartbeat CPU  0 instructions:   87000000 cycles:  241871685 heartbeat IPC: 0.12007 cumulative IPC: 0.15439 (Simulation time: 0 hr 11 min 12 sec) 
Heartbeat CPU  3 instructions:   78000000 cycles:  245099254 heartbeat IPC: 0.11914 cumulative IPC: 0.12569 (Simulation time: 0 hr 11 min 17 sec) 
Heartbeat CPU  1 instructions:   91000002 cycles:  245900674 heartbeat IPC: 0.14968 cumulative IPC: 0.14937 (Simulation time: 0 hr 11 min 18 sec) 
Heartbeat CPU  2 instructions:   89000000 cycles:  246732268 heartbeat IPC: 0.14787 cumulative IPC: 0.14781 (Simulation time: 0 hr 11 min 19 sec) 
Heartbeat CPU  0 instructions:   88000000 cycles:  250233325 heartbeat IPC: 0.11959 cumulative IPC: 0.15311 (Simulation time: 0 hr 11 min 24 sec) 
Heartbeat CPU  1 instructions:   92000000 cycles:  252586899 heartbeat IPC: 0.14956 cumulative IPC: 0.14937 (Simulation time: 0 hr 11 min 27 sec) 
Heartbeat CPU  3 instructions:   79000000 cycles:  253496776 heartbeat IPC: 0.11908 cumulative IPC: 0.12545 (Simulation time: 0 hr 11 min 28 sec) 
Heartbeat CPU  2 instructions:   90000000 cycles:  253531073 heartbeat IPC: 0.14708 cumulative IPC: 0.14779 (Simulation time: 0 hr 11 min 29 sec) 
Heartbeat CPU  0 instructions:   89000002 cycles:  258615359 heartbeat IPC: 0.11930 cumulative IPC: 0.15192 (Simulation time: 0 hr 11 min 36 sec) 
Heartbeat CPU  1 instructions:   93000003 cycles:  259224974 heartbeat IPC: 0.15065 cumulative IPC: 0.14941 (Simulation time: 0 hr 11 min 36 sec) 
Heartbeat CPU  2 instructions:   91000000 cycles:  260312630 heartbeat IPC: 0.14746 cumulative IPC: 0.14778 (Simulation time: 0 hr 11 min 38 sec) 
Heartbeat CPU  3 instructions:   80000000 cycles:  261950458 heartbeat IPC: 0.11829 cumulative IPC: 0.12520 (Simulation time: 0 hr 11 min 40 sec) 
Heartbeat CPU  1 instructions:   94000000 cycles:  265886136 heartbeat IPC: 0.15012 cumulative IPC: 0.14943 (Simulation time: 0 hr 11 min 46 sec) 
Heartbeat CPU  2 instructions:   92000000 cycles:  267107744 heartbeat IPC: 0.14716 cumulative IPC: 0.14776 (Simulation time: 0 hr 11 min 47 sec) 
Heartbeat CPU  0 instructions:   90000000 cycles:  267297854 heartbeat IPC: 0.11517 cumulative IPC: 0.15061 (Simulation time: 0 hr 11 min 48 sec) 
Heartbeat CPU  3 instructions:   81000001 cycles:  270429642 heartbeat IPC: 0.11794 cumulative IPC: 0.12495 (Simulation time: 0 hr 11 min 52 sec) 
Heartbeat CPU  1 instructions:   95000002 cycles:  272518921 heartbeat IPC: 0.15077 cumulative IPC: 0.14946 (Simulation time: 0 hr 11 min 55 sec) 
Heartbeat CPU  2 instructions:   93000003 cycles:  273894235 heartbeat IPC: 0.14735 cumulative IPC: 0.14775 (Simulation time: 0 hr 11 min 57 sec) 
Heartbeat CPU  0 instructions:   91000000 cycles:  275659757 heartbeat IPC: 0.11959 cumulative IPC: 0.14959 (Simulation time: 0 hr 11 min 59 sec) 
Heartbeat CPU  3 instructions:   82000000 cycles:  278895526 heartbeat IPC: 0.11812 cumulative IPC: 0.12472 (Simulation time: 0 hr 12 min 4 sec) 
Heartbeat CPU  1 instructions:   96000000 cycles:  279175726 heartbeat IPC: 0.15022 cumulative IPC: 0.14948 (Simulation time: 0 hr 12 min 4 sec) 
Heartbeat CPU  2 instructions:   94000003 cycles:  280731826 heartbeat IPC: 0.14625 cumulative IPC: 0.14771 (Simulation time: 0 hr 12 min 6 sec) 
Heartbeat CPU  0 instructions:   92000000 cycles:  284075293 heartbeat IPC: 0.11883 cumulative IPC: 0.14860 (Simulation time: 0 hr 12 min 11 sec) 
Heartbeat CPU  1 instructions:   97000000 cycles:  285827272 heartbeat IPC: 0.15034 cumulative IPC: 0.14951 (Simulation time: 0 hr 12 min 14 sec) 
Heartbeat CPU  3 instructions:   83000002 cycles:  287357879 heartbeat IPC: 0.11817 cumulative IPC: 0.12452 (Simulation time: 0 hr 12 min 16 sec) 
Heartbeat CPU  2 instructions:   95000001 cycles:  287612182 heartbeat IPC: 0.14534 cumulative IPC: 0.14765 (Simulation time: 0 hr 12 min 16 sec) 
Heartbeat CPU  1 instructions:   98000000 cycles:  292462835 heartbeat IPC: 0.15070 cumulative IPC: 0.14953 (Simulation time: 0 hr 12 min 23 sec) 
Heartbeat CPU  0 instructions:   93000003 cycles:  292488720 heartbeat IPC: 0.11886 cumulative IPC: 0.14767 (Simulation time: 0 hr 12 min 23 sec) 
Heartbeat CPU  2 instructions:   96000000 cycles:  294453619 heartbeat IPC: 0.14617 cumulative IPC: 0.14762 (Simulation time: 0 hr 12 min 25 sec) 
Heartbeat CPU  3 instructions:   84000000 cycles:  295865774 heartbeat IPC: 0.11754 cumulative IPC: 0.12430 (Simulation time: 0 hr 12 min 27 sec) 
Heartbeat CPU  1 instructions:   99000001 cycles:  299055338 heartbeat IPC: 0.15169 cumulative IPC: 0.14959 (Simulation time: 0 hr 12 min 32 sec) 
Heartbeat CPU  0 instructions:   94000000 cycles:  299323661 heartbeat IPC: 0.14631 cumulative IPC: 0.14764 (Simulation time: 0 hr 12 min 33 sec) 
Heartbeat CPU  2 instructions:   97000002 cycles:  301293825 heartbeat IPC: 0.14619 cumulative IPC: 0.14758 (Simulation time: 0 hr 12 min 36 sec) 
Heartbeat CPU  0 instructions:   95000002 cycles:  304184263 heartbeat IPC: 0.20574 cumulative IPC: 0.14864 (Simulation time: 0 hr 12 min 41 sec) 
Heartbeat CPU  3 instructions:   85000000 cycles:  304363440 heartbeat IPC: 0.11768 cumulative IPC: 0.12410 (Simulation time: 0 hr 12 min 41 sec) 
*** Reached end of trace for Core: 1 Repeating trace: /data3/CLOUD9/traces/cloud9_phase1_core1.trace.xz
Heartbeat CPU  1 instructions:  100000000 cycles:  305663754 heartbeat IPC: 0.15132 cumulative IPC: 0.14963 (Simulation time: 0 hr 12 min 43 sec) 
Heartbeat CPU  2 instructions:   98000001 cycles:  308128778 heartbeat IPC: 0.14631 cumulative IPC: 0.14755 (Simulation time: 0 hr 12 min 46 sec) 
Heartbeat CPU  0 instructions:   96000000 cycles:  310798960 heartbeat IPC: 0.15118 cumulative IPC: 0.14870 (Simulation time: 0 hr 12 min 50 sec) 
Heartbeat CPU  1 instructions:  101000000 cycles:  312332011 heartbeat IPC: 0.14996 cumulative IPC: 0.14963 (Simulation time: 0 hr 12 min 52 sec) 
Heartbeat CPU  3 instructions:   86000000 cycles:  313144403 heartbeat IPC: 0.11388 cumulative IPC: 0.12379 (Simulation time: 0 hr 12 min 53 sec) 
Heartbeat CPU  2 instructions:   99000003 cycles:  314929447 heartbeat IPC: 0.14704 cumulative IPC: 0.14754 (Simulation time: 0 hr 12 min 56 sec) 
Heartbeat CPU  1 instructions:  102000000 cycles:  318988530 heartbeat IPC: 0.15023 cumulative IPC: 0.14965 (Simulation time: 0 hr 13 min 1 sec) 
Heartbeat CPU  0 instructions:   97000001 cycles:  319160416 heartbeat IPC: 0.11960 cumulative IPC: 0.14788 (Simulation time: 0 hr 13 min 2 sec) 
Heartbeat CPU  3 instructions:   87000001 cycles:  321667426 heartbeat IPC: 0.11733 cumulative IPC: 0.12361 (Simulation time: 0 hr 13 min 5 sec) 
*** Reached end of trace for Core: 2 Repeating trace: /data3/CLOUD9/traces/cloud9_phase1_core2.trace.xz
Heartbeat CPU  2 instructions:  100000000 cycles:  321760877 heartbeat IPC: 0.14638 cumulative IPC: 0.14751 (Simulation time: 0 hr 13 min 5 sec) 
Heartbeat CPU  1 instructions:  103000000 cycles:  325629007 heartbeat IPC: 0.15059 cumulative IPC: 0.14967 (Simulation time: 0 hr 13 min 11 sec) 
Heartbeat CPU  0 instructions:   98000001 cycles:  327494138 heartbeat IPC: 0.11999 cumulative IPC: 0.14712 (Simulation time: 0 hr 13 min 13 sec) 
Heartbeat CPU  2 instructions:  101000002 cycles:  328254262 heartbeat IPC: 0.15400 cumulative IPC: 0.14765 (Simulation time: 0 hr 13 min 14 sec) 
Heartbeat CPU  3 instructions:   88000000 cycles:  330183833 heartbeat IPC: 0.11742 cumulative IPC: 0.12344 (Simulation time: 0 hr 13 min 17 sec) 
Heartbeat CPU  1 instructions:  104000000 cycles:  332274204 heartbeat IPC: 0.15048 cumulative IPC: 0.14969 (Simulation time: 0 hr 13 min 20 sec) 
Heartbeat CPU  2 instructions:  102000002 cycles:  334752758 heartbeat IPC: 0.15388 cumulative IPC: 0.14778 (Simulation time: 0 hr 13 min 23 sec) 
Heartbeat CPU  0 instructions:   99000000 cycles:  335894806 heartbeat IPC: 0.11904 cumulative IPC: 0.14637 (Simulation time: 0 hr 13 min 25 sec) 
Heartbeat CPU  3 instructions:   89000000 cycles:  337723064 heartbeat IPC: 0.13264 cumulative IPC: 0.12366 (Simulation time: 0 hr 13 min 28 sec) 
Heartbeat CPU  1 instructions:  105000000 cycles:  338900913 heartbeat IPC: 0.15090 cumulative IPC: 0.14971 (Simulation time: 0 hr 13 min 30 sec) 
Heartbeat CPU  2 instructions:  103000000 cycles:  341256953 heartbeat IPC: 0.15375 cumulative IPC: 0.14790 (Simulation time: 0 hr 13 min 33 sec) 
Heartbeat CPU  3 instructions:   90000002 cycles:  342404119 heartbeat IPC: 0.21363 cumulative IPC: 0.12497 (Simulation time: 0 hr 13 min 35 sec) 
*** Reached end of trace for Core: 0 Repeating trace: /data3/CLOUD9/traces/cloud9_phase1_core0.trace.xz
Heartbeat CPU  0 instructions:  100000000 cycles:  344320528 heartbeat IPC: 0.11868 cumulative IPC: 0.14564 (Simulation time: 0 hr 13 min 38 sec) 
Heartbeat CPU  1 instructions:  106000003 cycles:  345549973 heartbeat IPC: 0.15040 cumulative IPC: 0.14973 (Simulation time: 0 hr 13 min 40 sec) 
Heartbeat CPU  2 instructions:  104000000 cycles:  347775986 heartbeat IPC: 0.15340 cumulative IPC: 0.14801 (Simulation time: 0 hr 13 min 44 sec) 
Heartbeat CPU  3 instructions:   91000000 cycles:  348430175 heartbeat IPC: 0.16595 cumulative IPC: 0.12573 (Simulation time: 0 hr 13 min 45 sec) 
Heartbeat CPU  0 instructions:  101000002 cycles:  349365709 heartbeat IPC: 0.19821 cumulative IPC: 0.14645 (Simulation time: 0 hr 13 min 47 sec) 
Heartbeat CPU  1 instructions:  107000002 cycles:  352199930 heartbeat IPC: 0.15038 cumulative IPC: 0.14974 (Simulation time: 0 hr 13 min 51 sec) 
Heartbeat CPU  0 instructions:  102000000 cycles:  353944029 heartbeat IPC: 0.21842 cumulative IPC: 0.14745 (Simulation time: 0 hr 13 min 54 sec) 
Heartbeat CPU  2 instructions:  105000001 cycles:  354381500 heartbeat IPC: 0.15139 cumulative IPC: 0.14808 (Simulation time: 0 hr 13 min 55 sec) 
Heartbeat CPU  3 instructions:   92000000 cycles:  356826079 heartbeat IPC: 0.11911 cumulative IPC: 0.12556 (Simulation time: 0 hr 13 min 59 sec) 
Heartbeat CPU  0 instructions:  103000001 cycles:  358662753 heartbeat IPC: 0.21192 cumulative IPC: 0.14835 (Simulation time: 0 hr 14 min 2 sec) 
Heartbeat CPU  1 instructions:  108000000 cycles:  358861135 heartbeat IPC: 0.15012 cumulative IPC: 0.14975 (Simulation time: 0 hr 14 min 2 sec) 
Heartbeat CPU  2 instructions:  106000003 cycles:  360945830 heartbeat IPC: 0.15234 cumulative IPC: 0.14816 (Simulation time: 0 hr 14 min 5 sec) 
Heartbeat CPU  0 instructions:  104000000 cycles:  363610924 heartbeat IPC: 0.20209 cumulative IPC: 0.14913 (Simulation time: 0 hr 14 min 9 sec) 
Heartbeat CPU  3 instructions:   93000001 cycles:  365237127 heartbeat IPC: 0.11889 cumulative IPC: 0.12540 (Simulation time: 0 hr 14 min 12 sec) 
Heartbeat CPU  1 instructions:  109000003 cycles:  365526853 heartbeat IPC: 0.15002 cumulative IPC: 0.14975 (Simulation time: 0 hr 14 min 13 sec) 
Heartbeat CPU  2 instructions:  107000003 cycles:  367538294 heartbeat IPC: 0.15169 cumulative IPC: 0.14823 (Simulation time: 0 hr 14 min 16 sec) 
Heartbeat CPU  0 instructions:  105000000 cycles:  368770934 heartbeat IPC: 0.19380 cumulative IPC: 0.14980 (Simulation time: 0 hr 14 min 18 sec) 
Heartbeat CPU  1 instructions:  110000001 cycles:  372205027 heartbeat IPC: 0.14974 cumulative IPC: 0.14975 (Simulation time: 0 hr 14 min 23 sec) 
Heartbeat CPU  3 instructions:   94000001 cycles:  373621433 heartbeat IPC: 0.11927 cumulative IPC: 0.12525 (Simulation time: 0 hr 14 min 25 sec) 
Heartbeat CPU  2 instructions:  108000000 cycles:  374091336 heartbeat IPC: 0.15260 cumulative IPC: 0.14831 (Simulation time: 0 hr 14 min 26 sec) 
Heartbeat CPU  0 instructions:  106000003 cycles:  374687893 heartbeat IPC: 0.16901 cumulative IPC: 0.15012 (Simulation time: 0 hr 14 min 27 sec) 
Heartbeat CPU  1 instructions:  111000001 cycles:  378866794 heartbeat IPC: 0.15011 cumulative IPC: 0.14976 (Simulation time: 0 hr 14 min 33 sec) 
Heartbeat CPU  2 instructions:  109000001 cycles:  380663413 heartbeat IPC: 0.15216 cumulative IPC: 0.14838 (Simulation time: 0 hr 14 min 36 sec) 
Heartbeat CPU  0 instructions:  107000003 cycles:  381561534 heartbeat IPC: 0.14548 cumulative IPC: 0.15003 (Simulation time: 0 hr 14 min 37 sec) 
Heartbeat CPU  3 instructions:   95000000 cycles:  382095916 heartbeat IPC: 0.11800 cumulative IPC: 0.12508 (Simulation time: 0 hr 14 min 38 sec) 
Heartbeat CPU  1 instructions:  112000000 cycles:  385518543 heartbeat IPC: 0.15034 cumulative IPC: 0.14977 (Simulation time: 0 hr 14 min 43 sec) 
Heartbeat CPU  2 instructions:  110000000 cycles:  387207555 heartbeat IPC: 0.15281 cumulative IPC: 0.14846 (Simulation time: 0 hr 14 min 46 sec) 
Heartbeat CPU  0 instructions:  108000000 cycles:  388034146 heartbeat IPC: 0.15450 cumulative IPC: 0.15011 (Simulation time: 0 hr 14 min 47 sec) 
Heartbeat CPU  3 instructions:   96000000 cycles:  390561314 heartbeat IPC: 0.11813 cumulative IPC: 0.12492 (Simulation time: 0 hr 14 min 51 sec) 
Heartbeat CPU  1 instructions:  113000001 cycles:  392196020 heartbeat IPC: 0.14976 cumulative IPC: 0.14977 (Simulation time: 0 hr 14 min 53 sec) 
Heartbeat CPU  2 instructions:  111000002 cycles:  393787730 heartbeat IPC: 0.15197 cumulative IPC: 0.14852 (Simulation time: 0 hr 14 min 56 sec) 
Heartbeat CPU  0 instructions:  109000002 cycles:  394337827 heartbeat IPC: 0.15864 cumulative IPC: 0.15025 (Simulation time: 0 hr 14 min 56 sec) 
Heartbeat CPU  1 instructions:  114000001 cycles:  398879319 heartbeat IPC: 0.14963 cumulative IPC: 0.14977 (Simulation time: 0 hr 15 min 3 sec) 
Heartbeat CPU  3 instructions:   97000000 cycles:  399033263 heartbeat IPC: 0.11804 cumulative IPC: 0.12477 (Simulation time: 0 hr 15 min 3 sec) 
Heartbeat CPU  2 instructions:  112000000 cycles:  400368973 heartbeat IPC: 0.15195 cumulative IPC: 0.14858 (Simulation time: 0 hr 15 min 6 sec) 
Heartbeat CPU  0 instructions:  110000000 cycles:  400520358 heartbeat IPC: 0.16175 cumulative IPC: 0.15044 (Simulation time: 0 hr 15 min 6 sec) 
Heartbeat CPU  1 instructions:  115000003 cycles:  405543180 heartbeat IPC: 0.15006 cumulative IPC: 0.14977 (Simulation time: 0 hr 15 min 13 sec) 
Heartbeat CPU  0 instructions:  111000003 cycles:  406910664 heartbeat IPC: 0.15649 cumulative IPC: 0.15054 (Simulation time: 0 hr 15 min 15 sec) 
Heartbeat CPU  2 instructions:  113000000 cycles:  406950118 heartbeat IPC: 0.15195 cumulative IPC: 0.14864 (Simulation time: 0 hr 15 min 15 sec) 
Heartbeat CPU  3 instructions:   98000000 cycles:  407512631 heartbeat IPC: 0.11793 cumulative IPC: 0.12462 (Simulation time: 0 hr 15 min 16 sec) 
Heartbeat CPU  1 instructions:  116000000 cycles:  412203225 heartbeat IPC: 0.15015 cumulative IPC: 0.14978 (Simulation time: 0 hr 15 min 24 sec) 
Heartbeat CPU  0 instructions:  112000000 cycles:  412688034 heartbeat IPC: 0.17309 cumulative IPC: 0.15088 (Simulation time: 0 hr 15 min 24 sec) 
Heartbeat CPU  2 instructions:  114000002 cycles:  413565912 heartbeat IPC: 0.15115 cumulative IPC: 0.14868 (Simulation time: 0 hr 15 min 26 sec) 
Heartbeat CPU  3 instructions:   99000001 cycles:  416070509 heartbeat IPC: 0.11685 cumulative IPC: 0.12445 (Simulation time: 0 hr 15 min 30 sec) 
Heartbeat CPU  0 instructions:  113000001 cycles:  417899921 heartbeat IPC: 0.19187 cumulative IPC: 0.15142 (Simulation time: 0 hr 15 min 33 sec) 
Heartbeat CPU  1 instructions:  117000001 cycles:  418875212 heartbeat IPC: 0.14988 cumulative IPC: 0.14978 (Simulation time: 0 hr 15 min 34 sec) 
Heartbeat CPU  2 instructions:  115000003 cycles:  420172664 heartbeat IPC: 0.15136 cumulative IPC: 0.14873 (Simulation time: 0 hr 15 min 36 sec) 
Heartbeat CPU  0 instructions:  114000003 cycles:  423599342 heartbeat IPC: 0.17546 cumulative IPC: 0.15176 (Simulation time: 0 hr 15 min 42 sec) 
*** Reached end of trace for Core: 3 Repeating trace: /data3/CLOUD9/traces/cloud9_phase1_core3.trace.xz
Heartbeat CPU  3 instructions:  100000000 cycles:  424583328 heartbeat IPC: 0.11747 cumulative IPC: 0.12430 (Simulation time: 0 hr 15 min 43 sec) 
Heartbeat CPU  1 instructions:  118000000 cycles:  425527114 heartbeat IPC: 0.15033 cumulative IPC: 0.14979 (Simulation time: 0 hr 15 min 45 sec) 
Heartbeat CPU  2 instructions:  116000000 cycles:  426776885 heartbeat IPC: 0.15142 cumulative IPC: 0.14877 (Simulation time: 0 hr 15 min 47 sec) 
Heartbeat CPU  0 instructions:  115000003 cycles:  429327171 heartbeat IPC: 0.17459 cumulative IPC: 0.15208 (Simulation time: 0 hr 15 min 51 sec) 
Heartbeat CPU  1 instructions:  119000000 cycles:  432201173 heartbeat IPC: 0.14983 cumulative IPC: 0.14979 (Simulation time: 0 hr 15 min 55 sec) 
Heartbeat CPU  3 instructions:  101000000 cycles:  432379427 heartbeat IPC: 0.12827 cumulative IPC: 0.12438 (Simulation time: 0 hr 15 min 56 sec) 
Heartbeat CPU  2 instructions:  117000000 cycles:  433386061 heartbeat IPC: 0.15130 cumulative IPC: 0.14881 (Simulation time: 0 hr 15 min 57 sec) 
Heartbeat CPU  0 instructions:  116000000 cycles:  435104516 heartbeat IPC: 0.17309 cumulative IPC: 0.15237 (Simulation time: 0 hr 16 min 0 sec) 
Heartbeat CPU  1 instructions:  120000000 cycles:  438905340 heartbeat IPC: 0.14916 cumulative IPC: 0.14978 (Simulation time: 0 hr 16 min 5 sec) 
Heartbeat CPU  2 instructions:  118000001 cycles:  439987671 heartbeat IPC: 0.15148 cumulative IPC: 0.14885 (Simulation time: 0 hr 16 min 7 sec) 
Heartbeat CPU  3 instructions:  102000002 cycles:  440573004 heartbeat IPC: 0.12205 cumulative IPC: 0.12433 (Simulation time: 0 hr 16 min 8 sec) 
Heartbeat CPU  0 instructions:  117000002 cycles:  441390699 heartbeat IPC: 0.15908 cumulative IPC: 0.15247 (Simulation time: 0 hr 16 min 9 sec) 
Heartbeat CPU  1 instructions:  121000002 cycles:  445592963 heartbeat IPC: 0.14953 cumulative IPC: 0.14977 (Simulation time: 0 hr 16 min 15 sec) 
Heartbeat CPU  2 instructions:  119000003 cycles:  446585663 heartbeat IPC: 0.15156 cumulative IPC: 0.14889 (Simulation time: 0 hr 16 min 17 sec) 
Heartbeat CPU  3 instructions:  103000000 cycles:  448728603 heartbeat IPC: 0.12261 cumulative IPC: 0.12430 (Simulation time: 0 hr 16 min 20 sec) 
Heartbeat CPU  0 instructions:  118000000 cycles:  449253738 heartbeat IPC: 0.12718 cumulative IPC: 0.15201 (Simulation time: 0 hr 16 min 21 sec) 
Heartbeat CPU  1 instructions:  122000002 cycles:  452310037 heartbeat IPC: 0.14887 cumulative IPC: 0.14976 (Simulation time: 0 hr 16 min 25 sec) 
Heartbeat CPU  2 instructions:  120000000 cycles:  453166297 heartbeat IPC: 0.15196 cumulative IPC: 0.14894 (Simulation time: 0 hr 16 min 27 sec) 
Heartbeat CPU  3 instructions:  104000000 cycles:  456974211 heartbeat IPC: 0.12128 cumulative IPC: 0.12424 (Simulation time: 0 hr 16 min 32 sec) 
Heartbeat CPU  0 instructions:  119000001 cycles:  457235582 heartbeat IPC: 0.12528 cumulative IPC: 0.15152 (Simulation time: 0 hr 16 min 33 sec) 
Heartbeat CPU  1 instructions:  123000003 cycles:  459007776 heartbeat IPC: 0.14930 cumulative IPC: 0.14975 (Simulation time: 0 hr 16 min 35 sec) 
Heartbeat CPU  2 instructions:  121000003 cycles:  459757580 heartbeat IPC: 0.15172 cumulative IPC: 0.14898 (Simulation time: 0 hr 16 min 36 sec) 
Heartbeat CPU  3 instructions:  105000000 cycles:  465240762 heartbeat IPC: 0.12097 cumulative IPC: 0.12418 (Simulation time: 0 hr 16 min 44 sec) 
Heartbeat CPU  0 instructions:  120000000 cycles:  465655969 heartbeat IPC: 0.11876 cumulative IPC: 0.15089 (Simulation time: 0 hr 16 min 45 sec) 
Heartbeat CPU  1 instructions:  124000000 cycles:  465773226 heartbeat IPC: 0.14781 cumulative IPC: 0.14972 (Simulation time: 0 hr 16 min 45 sec) 
Heartbeat CPU  2 instructions:  122000001 cycles:  466321019 heartbeat IPC: 0.15236 cumulative IPC: 0.14903 (Simulation time: 0 hr 16 min 46 sec) 
Heartbeat CPU  1 instructions:  125000001 cycles:  472516363 heartbeat IPC: 0.14830 cumulative IPC: 0.14970 (Simulation time: 0 hr 16 min 55 sec) 
Heartbeat CPU  2 instructions:  123000001 cycles:  472916098 heartbeat IPC: 0.15163 cumulative IPC: 0.14907 (Simulation time: 0 hr 16 min 55 sec) 
Heartbeat CPU  3 instructions:  106000001 cycles:  473550698 heartbeat IPC: 0.12034 cumulative IPC: 0.12411 (Simulation time: 0 hr 16 min 56 sec) 
Heartbeat CPU  0 instructions:  121000001 cycles:  474007448 heartbeat IPC: 0.11974 cumulative IPC: 0.15032 (Simulation time: 0 hr 16 min 57 sec) 
Heartbeat CPU  1 instructions:  126000002 cycles:  479317663 heartbeat IPC: 0.14703 cumulative IPC: 0.14966 (Simulation time: 0 hr 17 min 4 sec) 
Heartbeat CPU  2 instructions:  124000000 cycles:  479513726 heartbeat IPC: 0.15157 cumulative IPC: 0.14911 (Simulation time: 0 hr 17 min 5 sec) 
Heartbeat CPU  3 instructions:  107000002 cycles:  481802623 heartbeat IPC: 0.12118 cumulative IPC: 0.12406 (Simulation time: 0 hr 17 min 8 sec) 
Heartbeat CPU  0 instructions:  122000002 cycles:  482304683 heartbeat IPC: 0.12052 cumulative IPC: 0.14978 (Simulation time: 0 hr 17 min 9 sec) 
Heartbeat CPU  1 instructions:  127000003 cycles:  486065968 heartbeat IPC: 0.14819 cumulative IPC: 0.14964 (Simulation time: 0 hr 17 min 14 sec) 
Heartbeat CPU  2 instructions:  125000003 cycles:  486084940 heartbeat IPC: 0.15218 cumulative IPC: 0.14915 (Simulation time: 0 hr 17 min 14 sec) 
Heartbeat CPU  3 instructions:  108000000 cycles:  490062756 heartbeat IPC: 0.12106 cumulative IPC: 0.12400 (Simulation time: 0 hr 17 min 20 sec) 
Heartbeat CPU  0 instructions:  123000002 cycles:  490569401 heartbeat IPC: 0.12100 cumulative IPC: 0.14927 (Simulation time: 0 hr 17 min 21 sec) 
Heartbeat CPU  2 instructions:  126000001 cycles:  492680188 heartbeat IPC: 0.15162 cumulative IPC: 0.14919 (Simulation time: 0 hr 17 min 24 sec) 
Heartbeat CPU  1 instructions:  128000000 cycles:  492764528 heartbeat IPC: 0.14929 cumulative IPC: 0.14964 (Simulation time: 0 hr 17 min 24 sec) 
Heartbeat CPU  3 instructions:  109000000 cycles:  498369641 heartbeat IPC: 0.12038 cumulative IPC: 0.12394 (Simulation time: 0 hr 17 min 32 sec) 
Heartbeat CPU  0 instructions:  124000000 cycles:  498868915 heartbeat IPC: 0.12049 cumulative IPC: 0.14877 (Simulation time: 0 hr 17 min 33 sec) 
Heartbeat CPU  1 instructions:  129000000 cycles:  499175712 heartbeat IPC: 0.15598 cumulative IPC: 0.14972 (Simulation time: 0 hr 17 min 33 sec) 
Heartbeat CPU  2 instructions:  127000003 cycles:  499274458 heartbeat IPC: 0.15165 cumulative IPC: 0.14922 (Simulation time: 0 hr 17 min 33 sec) 
Heartbeat CPU  1 instructions:  130000000 cycles:  505538758 heartbeat IPC: 0.15716 cumulative IPC: 0.14982 (Simulation time: 0 hr 17 min 42 sec) 
Heartbeat CPU  2 instructions:  128000000 cycles:  505868447 heartbeat IPC: 0.15165 cumulative IPC: 0.14925 (Simulation time: 0 hr 17 min 43 sec) 
Heartbeat CPU  3 instructions:  110000001 cycles:  506693335 heartbeat IPC: 0.12014 cumulative IPC: 0.12387 (Simulation time: 0 hr 17 min 44 sec) 
Heartbeat CPU  0 instructions:  125000000 cycles:  506695550 heartbeat IPC: 0.12777 cumulative IPC: 0.14843 (Simulation time: 0 hr 17 min 44 sec) 
Heartbeat CPU  1 instructions:  131000000 cycles:  511952822 heartbeat IPC: 0.15591 cumulative IPC: 0.14990 (Simulation time: 0 hr 17 min 52 sec) 
Heartbeat CPU  2 instructions:  129000000 cycles:  512503548 heartbeat IPC: 0.15071 cumulative IPC: 0.14927 (Simulation time: 0 hr 17 min 53 sec) 
Heartbeat CPU  0 instructions:  126000003 cycles:  514351936 heartbeat IPC: 0.13061 cumulative IPC: 0.14815 (Simulation time: 0 hr 17 min 55 sec) 
Heartbeat CPU  3 instructions:  111000000 cycles:  514997986 heartbeat IPC: 0.12041 cumulative IPC: 0.12382 (Simulation time: 0 hr 17 min 56 sec) 
Heartbeat CPU  1 instructions:  132000000 cycles:  518324586 heartbeat IPC: 0.15694 cumulative IPC: 0.14999 (Simulation time: 0 hr 18 min 1 sec) 
Heartbeat CPU  2 instructions:  130000000 cycles:  519096777 heartbeat IPC: 0.15167 cumulative IPC: 0.14930 (Simulation time: 0 hr 18 min 3 sec) 
Heartbeat CPU  0 instructions:  127000001 cycles:  521551059 heartbeat IPC: 0.13891 cumulative IPC: 0.14802 (Simulation time: 0 hr 18 min 6 sec) 
Heartbeat CPU  3 instructions:  112000000 cycles:  523672772 heartbeat IPC: 0.11528 cumulative IPC: 0.12367 (Simulation time: 0 hr 18 min 9 sec) 
Heartbeat CPU  1 instructions:  133000000 cycles:  524791504 heartbeat IPC: 0.15463 cumulative IPC: 0.15005 (Simulation time: 0 hr 18 min 11 sec) 
Heartbeat CPU  2 instructions:  131000003 cycles:  525688402 heartbeat IPC: 0.15171 cumulative IPC: 0.14934 (Simulation time: 0 hr 18 min 12 sec) 
Heartbeat CPU  0 instructions:  128000000 cycles:  528851955 heartbeat IPC: 0.13697 cumulative IPC: 0.14786 (Simulation time: 0 hr 18 min 17 sec) 
Heartbeat CPU  1 instructions:  134000002 cycles:  531186937 heartbeat IPC: 0.15636 cumulative IPC: 0.15013 (Simulation time: 0 hr 18 min 20 sec) 
Heartbeat CPU  3 instructions:  113000003 cycles:  532016698 heartbeat IPC: 0.11985 cumulative IPC: 0.12361 (Simulation time: 0 hr 18 min 21 sec) 
Heartbeat CPU  2 instructions:  132000000 cycles:  532276041 heartbeat IPC: 0.15180 cumulative IPC: 0.14937 (Simulation time: 0 hr 18 min 22 sec) 
Heartbeat CPU  0 instructions:  129000003 cycles:  535940445 heartbeat IPC: 0.14107 cumulative IPC: 0.14777 (Simulation time: 0 hr 18 min 27 sec) 
Heartbeat CPU  1 instructions:  135000002 cycles:  537558421 heartbeat IPC: 0.15695 cumulative IPC: 0.15021 (Simulation time: 0 hr 18 min 30 sec) 
Heartbeat CPU  2 instructions:  133000001 cycles:  538874410 heartbeat IPC: 0.15155 cumulative IPC: 0.14940 (Simulation time: 0 hr 18 min 32 sec) 
Heartbeat CPU  3 instructions:  114000003 cycles:  540405226 heartbeat IPC: 0.11921 cumulative IPC: 0.12353 (Simulation time: 0 hr 18 min 34 sec) 
Heartbeat CPU  0 instructions:  130000001 cycles:  543245108 heartbeat IPC: 0.13690 cumulative IPC: 0.14762 (Simulation time: 0 hr 18 min 38 sec) 
Heartbeat CPU  1 instructions:  136000000 cycles:  543964884 heartbeat IPC: 0.15609 cumulative IPC: 0.15029 (Simulation time: 0 hr 18 min 39 sec) 
Heartbeat CPU  2 instructions:  134000002 cycles:  545444354 heartbeat IPC: 0.15221 cumulative IPC: 0.14943 (Simulation time: 0 hr 18 min 42 sec) 
Heartbeat CPU  3 instructions:  115000000 cycles:  548818853 heartbeat IPC: 0.11885 cumulative IPC: 0.12346 (Simulation time: 0 hr 18 min 47 sec) 
Heartbeat CPU  0 instructions:  131000000 cycles:  550085657 heartbeat IPC: 0.14619 cumulative IPC: 0.14760 (Simulation time: 0 hr 18 min 49 sec) 
Heartbeat CPU  1 instructions:  137000003 cycles:  550425545 heartbeat IPC: 0.15478 cumulative IPC: 0.15034 (Simulation time: 0 hr 18 min 49 sec) 
Heartbeat CPU  2 instructions:  135000001 cycles:  552026117 heartbeat IPC: 0.15193 cumulative IPC: 0.14946 (Simulation time: 0 hr 18 min 52 sec) 
Heartbeat CPU  3 instructions:  116000000 cycles:  554964126 heartbeat IPC: 0.16273 cumulative IPC: 0.12391 (Simulation time: 0 hr 18 min 57 sec) 
Heartbeat CPU  0 instructions:  132000000 cycles:  556745395 heartbeat IPC: 0.15016 cumulative IPC: 0.14763 (Simulation time: 0 hr 19 min 0 sec) 
Heartbeat CPU  1 instructions:  138000002 cycles:  556842576 heartbeat IPC: 0.15584 cumulative IPC: 0.15041 (Simulation time: 0 hr 19 min 0 sec) 
Heartbeat CPU  2 instructions:  136000000 cycles:  558587080 heartbeat IPC: 0.15242 cumulative IPC: 0.14950 (Simulation time: 0 hr 19 min 3 sec) 
Heartbeat CPU  3 instructions:  117000001 cycles:  559720742 heartbeat IPC: 0.21023 cumulative IPC: 0.12468 (Simulation time: 0 hr 19 min 5 sec) 
Heartbeat CPU  1 instructions:  139000001 cycles:  563195974 heartbeat IPC: 0.15740 cumulative IPC: 0.15049 (Simulation time: 0 hr 19 min 11 sec) 
[...]
Core_0_L1I_acc_level_1 0
Core_0_L1I_acc_level_2 0
Core_0_L1I_acc_level_3 0
Core_0_L1I_acc_level_4 0
Core_0_L1I_acc_level_5 0
Core_0_L1I_acc_level_6 0
Core_0_L1I_acc_level_7 0
Core_0_L1I_acc_level_8 0
Core_0_L1I_acc_level_9 0

Core_0_L2C_total_access 2464272
Core_0_L2C_total_hit 1636643
Core_0_L2C_total_miss 827629
Core_0_L2C_loads 1206114
Core_0_L2C_load_hit 476836
Core_0_L2C_load_miss 729278
Core_0_L2C_RFOs 292718
Core_0_L2C_RFO_hit 195445
Core_0_L2C_RFO_miss 97273
Core_0_L2C_prefetches 0
Core_0_L2C_prefetch_hit 0
Core_0_L2C_prefetch_miss 0
Core_0_L2C_writebacks 965440
Core_0_L2C_writeback_hit 964362
Core_0_L2C_writeback_miss 1078
Core_0_L2C_prefetch_requested 0
Core_0_L2C_prefetch_dropped 0
Core_0_L2C_prefetch_issued 0
Core_0_L2C_prefetch_filled 0
Core_0_L2C_prefetch_useful 0
Core_0_L2C_prefetch_useless 0
Core_0_L2C_prefetch_late 0
Core_0_L2C_average_miss_latency 212.50258

Core_0_L2C_rq_access 2079331
Core_0_L2C_rq_forward 0
Core_0_L2C_rq_merged 0
Core_0_L2C_rq_to_cache 2079272
Core_0_L2C_rq_full 0

Core_0_L2C_wq_access 1334967
Core_0_L2C_wq_forward 59
Core_0_L2C_wq_merged 0
Core_0_L2C_wq_to_cache 1334967
Core_0_L2C_wq_full 0

Core_0_L2C_pq_access 0
Core_0_L2C_pq_forward 0
Core_0_L2C_pq_merged 0
Core_0_L2C_pq_to_cache 0
Core_0_L2C_pq_full 0

Core_0_L2C_acc_epochs 242308
Core_0_L2C_acc_level_0 242308
Core_0_L2C_acc_level_1 0
Core_0_L2C_acc_level_2 0
Core_0_L2C_acc_level_3 0
Core_0_L2C_acc_level_4 0
Core_0_L2C_acc_level_5 0
Core_0_L2C_acc_level_6 0
Core_0_L2C_acc_level_7 0
Core_0_L2C_acc_level_8 0
Core_0_L2C_acc_level_9 0

Core_0_LLC_total_access 1416888
Core_0_LLC_total_hit 961671
Core_0_LLC_total_miss 455217
Core_0_LLC_loads 729276
Core_0_LLC_load_hit 345591
Core_0_LLC_load_miss 383685
Core_0_LLC_RFOs 97271
Core_0_LLC_RFO_hit 71441
Core_0_LLC_RFO_miss 25830
Core_0_LLC_prefetches 0
Core_0_LLC_prefetch_hit 0
Core_0_LLC_prefetch_miss 0
Core_0_LLC_writebacks 590341
Core_0_LLC_writeback_hit 544639
Core_0_LLC_writeback_miss 45702
Core_0_LLC_prefetch_requested 0
Core_0_LLC_prefetch_dropped 0
Core_0_LLC_prefetch_issued 0
Core_0_LLC_prefetch_filled 0
Core_0_LLC_prefetch_useful 0
Core_0_LLC_prefetch_useless 0
Core_0_LLC_prefetch_late 0
Core_0_LLC_average_miss_latency 565.37421

Core_0_LLC_rq_access 2896118
Core_0_LLC_rq_forward 0
Core_0_LLC_rq_merged 0
Core_0_LLC_rq_to_cache 2896108
Core_0_LLC_rq_full 0

Core_0_LLC_wq_access 1735868
Core_0_LLC_wq_forward 10
Core_0_LLC_wq_merged 0
Core_0_LLC_wq_to_cache 1735868
Core_0_LLC_wq_full 0

Core_0_LLC_pq_access 0
Core_0_LLC_pq_forward 0
Core_0_LLC_pq_merged 0
Core_0_LLC_pq_to_cache 0
Core_0_LLC_pq_full 0

Core_0_LLC_acc_epochs 1197505
Core_0_LLC_acc_level_0 1197505
Core_0_LLC_acc_level_1 0
Core_0_LLC_acc_level_2 0
Core_0_LLC_acc_level_3 0
Core_0_LLC_acc_level_4 0
Core_0_LLC_acc_level_5 0
Core_0_LLC_acc_level_6 0
Core_0_LLC_acc_level_7 0
Core_0_LLC_acc_level_8 0
Core_0_LLC_acc_level_9 0

Core_0_major_page_fault 0
Core_0_minor_page_fault 6473

Core_1_instructions 150000002
Core_1_cycles 994929285
Core_1_IPC 0.15076

Core_1_branch_prediction_accuracy 99.78160
Core_1_branch_MPKI 0.45639
Core_1_average_ROB_occupancy_at_mispredict 237.40422

Core_1_L1D_total_access 22699485
Core_1_L1D_total_hit 22385906
Core_1_L1D_total_miss 313579
Core_1_L1D_loads 13638425
Core_1_L1D_load_hit 13328359
Core_1_L1D_load_miss 310066
Core_1_L1D_RFOs 9061060
Core_1_L1D_RFO_hit 9057547
Core_1_L1D_RFO_miss 3513
Core_1_L1D_prefetches 0
Core_1_L1D_prefetch_hit 0
Core_1_L1D_prefetch_miss 0
Core_1_L1D_writebacks 0
Core_1_L1D_writeback_hit 0
Core_1_L1D_writeback_miss 0
Core_1_L1D_prefetch_requested 0
Core_1_L1D_prefetch_dropped 0
Core_1_L1D_prefetch_issued 0
Core_1_L1D_prefetch_filled 0
Core_1_L1D_prefetch_useful 0
Core_1_L1D_prefetch_useless 0
Core_1_L1D_prefetch_late 0
Core_1_L1D_average_miss_latency 271.53172

Core_1_L1D_rq_access 24206218
Core_1_L1D_rq_forward 0
Core_1_L1D_rq_merged 7699048
Core_1_L1D_rq_to_cache 16507161
Core_1_L1D_rq_full 0

Core_1_L1D_wq_access 11136447
Core_1_L1D_wq_forward 9
Core_1_L1D_wq_merged 145107
Core_1_L1D_wq_to_cache 10991340
Core_1_L1D_wq_full 0

Core_1_L1D_pq_access 0
Core_1_L1D_pq_forward 0
Core_1_L1D_pq_merged 0
Core_1_L1D_pq_to_cache 0
Core_1_L1D_pq_full 0

Core_1_L1D_acc_epochs 196806
Core_1_L1D_acc_level_0 196806
Core_1_L1D_acc_level_1 0
Core_1_L1D_acc_level_2 0
Core_1_L1D_acc_level_3 0
Core_1_L1D_acc_level_4 0
Core_1_L1D_acc_level_5 0
Core_1_L1D_acc_level_6 0
Core_1_L1D_acc_level_7 0
Core_1_L1D_acc_level_8 0
Core_1_L1D_acc_level_9 0

Core_1_L1I_total_access 42923817
Core_1_L1I_total_hit 42923757
Core_1_L1I_total_miss 60
Core_1_L1I_loads 42923817
Core_1_L1I_load_hit 42923757
Core_1_L1I_load_miss 60
Core_1_L1I_RFOs 0
Core_1_L1I_RFO_hit 0
Core_1_L1I_RFO_miss 0
Core_1_L1I_prefetches 0
Core_1_L1I_prefetch_hit 0
Core_1_L1I_prefetch_miss 0
Core_1_L1I_writebacks 0
Core_1_L1I_writeback_hit 0
Core_1_L1I_writeback_miss 0
Core_1_L1I_prefetch_requested 0
Core_1_L1I_prefetch_dropped 0
Core_1_L1I_prefetch_issued 0
Core_1_L1I_prefetch_filled 0
Core_1_L1I_prefetch_useful 0
Core_1_L1I_prefetch_useless 0
Core_1_L1I_prefetch_late 0
Core_1_L1I_average_miss_latency 238.33333

Core_1_L1I_rq_access 181717945
Core_1_L1I_rq_forward 0
Core_1_L1I_rq_merged 129737595
Core_1_L1I_rq_to_cache 51980350
Core_1_L1I_rq_full 0

Core_1_L1I_wq_access 0
Core_1_L1I_wq_forward 0
Core_1_L1I_wq_merged 0
Core_1_L1I_wq_to_cache 0
Core_1_L1I_wq_full 0

Core_1_L1I_pq_access 0
Core_1_L1I_pq_forward 0
Core_1_L1I_pq_merged 0
Core_1_L1I_pq_to_cache 0
Core_1_L1I_pq_full 0

Core_1_L1I_acc_epochs 196806
Core_1_L1I_acc_level_0 196806
Core_1_L1I_acc_level_1 0
Core_1_L1I_acc_level_2 0
Core_1_L1I_acc_level_3 0
Core_1_L1I_acc_level_4 0
Core_1_L1I_acc_level_5 0
Core_1_L1I_acc_level_6 0
Core_1_L1I_acc_level_7 0
Core_1_L1I_acc_level_8 0
Core_1_L1I_acc_level_9 0

Core_1_L2C_total_access 477019
Core_1_L2C_total_hit 185309
Core_1_L2C_total_miss 291710
Core_1_L2C_loads 310126
Core_1_L2C_load_hit 21719
Core_1_L2C_load_miss 288407
Core_1_L2C_RFOs 3513
Core_1_L2C_RFO_hit 296
Core_1_L2C_RFO_miss 3217
Core_1_L2C_prefetches 0
Core_1_L2C_prefetch_hit 0
Core_1_L2C_prefetch_miss 0
Core_1_L2C_writebacks 163380
Core_1_L2C_writeback_hit 163294
Core_1_L2C_writeback_miss 86
Core_1_L2C_prefetch_requested 0
Core_1_L2C_prefetch_dropped 0
Core_1_L2C_prefetch_issued 0
Core_1_L2C_prefetch_filled 0
Core_1_L2C_prefetch_useful 0
Core_1_L2C_prefetch_useless 0
Core_1_L2C_prefetch_late 0
Core_1_L2C_average_miss_latency 223.18537

Core_1_L2C_rq_access 378559
Core_1_L2C_rq_forward 0
Core_1_L2C_rq_merged 0
Core_1_L2C_rq_to_cache 378559
Core_1_L2C_rq_full 0

Core_1_L2C_wq_access 204127
Core_1_L2C_wq_forward 0
Core_1_L2C_wq_merged 0
Core_1_L2C_wq_to_cache 204127
Core_1_L2C_wq_full 0

Core_1_L2C_pq_access 0
Core_1_L2C_pq_forward 0
Core_1_L2C_pq_merged 0
Core_1_L2C_pq_to_cache 0
Core_1_L2C_pq_full 0

Core_1_L2C_acc_epochs 196806
Core_1_L2C_acc_level_0 196806
Core_1_L2C_acc_level_1 0
Core_1_L2C_acc_level_2 0
Core_1_L2C_acc_level_3 0
Core_1_L2C_acc_level_4 0
Core_1_L2C_acc_level_5 0
Core_1_L2C_acc_level_6 0
Core_1_L2C_acc_level_7 0
Core_1_L2C_acc_level_8 0
Core_1_L2C_acc_level_9 0

Core_1_LLC_total_access 448483
Core_1_LLC_total_hit 181686
Core_1_LLC_total_miss 266797
Core_1_LLC_loads 288407
Core_1_LLC_load_hit 89969
Core_1_LLC_load_miss 198438
Core_1_LLC_RFOs 3217
Core_1_LLC_RFO_hit 630
Core_1_LLC_RFO_miss 2587
Core_1_LLC_prefetches 0
Core_1_LLC_prefetch_hit 0
Core_1_LLC_prefetch_miss 0
Core_1_LLC_writebacks 156859
Core_1_LLC_writeback_hit 91087
Core_1_LLC_writeback_miss 65772
Core_1_LLC_prefetch_requested 0
Core_1_LLC_prefetch_dropped 0
Core_1_LLC_prefetch_issued 0
Core_1_LLC_prefetch_filled 0
Core_1_LLC_prefetch_useful 0
Core_1_LLC_prefetch_useless 0
Core_1_LLC_prefetch_late 0
Core_1_LLC_average_miss_latency 964.65834

Core_1_LLC_rq_access 2896118
Core_1_LLC_rq_forward 0
Core_1_LLC_rq_merged 0
Core_1_LLC_rq_to_cache 2896108
Core_1_LLC_rq_full 0

Core_1_LLC_wq_access 1735868
Core_1_LLC_wq_forward 10
Core_1_LLC_wq_merged 0
Core_1_LLC_wq_to_cache 1735868
Core_1_LLC_wq_full 0

Core_1_LLC_pq_access 0
Core_1_LLC_pq_forward 0
Core_1_LLC_pq_merged 0
Core_1_LLC_pq_to_cache 0
Core_1_LLC_pq_full 0

Core_1_LLC_acc_epochs 1197505
Core_1_LLC_acc_level_0 1197505
Core_1_LLC_acc_level_1 0
Core_1_LLC_acc_level_2 0
Core_1_LLC_acc_level_3 0
Core_1_LLC_acc_level_4 0
Core_1_LLC_acc_level_5 0
Core_1_LLC_acc_level_6 0
Core_1_LLC_acc_level_7 0
Core_1_LLC_acc_level_8 0
Core_1_LLC_acc_level_9 0

Core_1_major_page_fault 0
Core_1_minor_page_fault 1923

Core_2_instructions 150000002
Core_2_cycles 1006579456
Core_2_IPC 0.14902

Core_2_branch_prediction_accuracy 99.42505
Core_2_branch_MPKI 1.21003
Core_2_average_ROB_occupancy_at_mispredict 210.44609

Core_2_L1D_total_access 23724024
Core_2_L1D_total_hit 23250887
Core_2_L1D_total_miss 473137
Core_2_L1D_loads 14431160
Core_2_L1D_load_hit 13958423
Core_2_L1D_load_miss 472737
Core_2_L1D_RFOs 9292864
Core_2_L1D_RFO_hit 9292464
Core_2_L1D_RFO_miss 400
Core_2_L1D_prefetches 0
Core_2_L1D_prefetch_hit 0
Core_2_L1D_prefetch_miss 0
Core_2_L1D_writebacks 0
Core_2_L1D_writeback_hit 0
Core_2_L1D_writeback_miss 0
Core_2_L1D_prefetch_requested 0
Core_2_L1D_prefetch_dropped 0
Core_2_L1D_prefetch_issued 0
Core_2_L1D_prefetch_filled 0
Core_2_L1D_prefetch_useful 0
Core_2_L1D_prefetch_useless 0
Core_2_L1D_prefetch_late 0
Core_2_L1D_average_miss_latency 237.03345

Core_2_L1D_rq_access 24800780
Core_2_L1D_rq_forward 0
Core_2_L1D_rq_merged 7476472
Core_2_L1D_rq_to_cache 17324036
Core_2_L1D_rq_full 0

Core_2_L1D_wq_access 11213368
Core_2_L1D_wq_forward 272
Core_2_L1D_wq_merged 135799
Core_2_L1D_wq_to_cache 11077569
Core_2_L1D_wq_full 0

Core_2_L1D_pq_access 0
Core_2_L1D_pq_forward 0
Core_2_L1D_pq_merged 0
Core_2_L1D_pq_to_cache 0
Core_2_L1D_pq_full 0

Core_2_L1D_acc_epochs 211217
Core_2_L1D_acc_level_0 211217
Core_2_L1D_acc_level_1 0
Core_2_L1D_acc_level_2 0
Core_2_L1D_acc_level_3 0
Core_2_L1D_acc_level_4 0
Core_2_L1D_acc_level_5 0
Core_2_L1D_acc_level_6 0
Core_2_L1D_acc_level_7 0
Core_2_L1D_acc_level_8 0
Core_2_L1D_acc_level_9 0

Core_2_L1I_total_access 40027418
Core_2_L1I_total_hit 40027366
Core_2_L1I_total_miss 52
Core_2_L1I_loads 40027418
Core_2_L1I_load_hit 40027366
Core_2_L1I_load_miss 52
Core_2_L1I_RFOs 0
Core_2_L1I_RFO_hit 0
Core_2_L1I_RFO_miss 0
Core_2_L1I_prefetches 0
Core_2_L1I_prefetch_hit 0
Core_2_L1I_prefetch_miss 0
Core_2_L1I_writebacks 0
Core_2_L1I_writeback_hit 0
Core_2_L1I_writeback_miss 0
Core_2_L1I_prefetch_requested 0
Core_2_L1I_prefetch_dropped 0
Core_2_L1I_prefetch_issued 0
Core_2_L1I_prefetch_filled 0
Core_2_L1I_prefetch_useful 0
Core_2_L1I_prefetch_useless 0
Core_2_L1I_prefetch_late 0
Core_2_L1I_average_miss_latency 519.67308

Core_2_L1I_rq_access 179937098
Core_2_L1I_rq_forward 0
Core_2_L1I_rq_merged 131781272
Core_2_L1I_rq_to_cache 48155826
Core_2_L1I_rq_full 0

Core_2_L1I_wq_access 0
Core_2_L1I_wq_forward 0
Core_2_L1I_wq_merged 0
Core_2_L1I_wq_to_cache 0
Core_2_L1I_wq_full 0

Core_2_L1I_pq_access 0
Core_2_L1I_pq_forward 0
Core_2_L1I_pq_merged 0
Core_2_L1I_pq_to_cache 0
Core_2_L1I_pq_full 0

Core_2_L1I_acc_epochs 211217
Core_2_L1I_acc_level_0 211217
Core_2_L1I_acc_level_1 0
Core_2_L1I_acc_level_2 0
Core_2_L1I_acc_level_3 0
Core_2_L1I_acc_level_4 0
Core_2_L1I_acc_level_5 0
Core_2_L1I_acc_level_6 0
Core_2_L1I_acc_level_7 0
Core_2_L1I_acc_level_8 0
Core_2_L1I_acc_level_9 0

Core_2_L2C_total_access 621490
Core_2_L2C_total_hit 211612
Core_2_L2C_total_miss 409878
Core_2_L2C_loads 472789
Core_2_L2C_load_hit 63396
Core_2_L2C_load_miss 409393
Core_2_L2C_RFOs 400
Core_2_L2C_RFO_hit 60
Core_2_L2C_RFO_miss 340
Core_2_L2C_prefetches 0
Core_2_L2C_prefetch_hit 0
Core_2_L2C_prefetch_miss 0
Core_2_L2C_writebacks 148301
Core_2_L2C_writeback_hit 148156
Core_2_L2C_writeback_miss 145
Core_2_L2C_prefetch_requested 0
Core_2_L2C_prefetch_dropped 0
Core_2_L2C_prefetch_issued 0
Core_2_L2C_prefetch_filled 0
Core_2_L2C_prefetch_useful 0
Core_2_L2C_prefetch_useless 0
Core_2_L2C_prefetch_late 0
Core_2_L2C_average_miss_latency 208.16086

Core_2_L2C_rq_access 568838
Core_2_L2C_rq_forward 0
Core_2_L2C_rq_merged 0
Core_2_L2C_rq_to_cache 568838
Core_2_L2C_rq_full 0

Core_2_L2C_wq_access 178138
Core_2_L2C_wq_forward 0
Core_2_L2C_wq_merged 0
Core_2_L2C_wq_to_cache 178138
Core_2_L2C_wq_full 0

Core_2_L2C_pq_access 0
Core_2_L2C_pq_forward 0
Core_2_L2C_pq_merged 0
Core_2_L2C_pq_to_cache 0
Core_2_L2C_pq_full 0

Core_2_L2C_acc_epochs 211217
Core_2_L2C_acc_level_0 211217
Core_2_L2C_acc_level_1 0
Core_2_L2C_acc_level_2 0
Core_2_L2C_acc_level_3 0
Core_2_L2C_acc_level_4 0
Core_2_L2C_acc_level_5 0
Core_2_L2C_acc_level_6 0
Core_2_L2C_acc_level_7 0
Core_2_L2C_acc_level_8 0
Core_2_L2C_acc_level_9 0

Core_2_LLC_total_access 552762
Core_2_LLC_total_hit 237686
Core_2_LLC_total_miss 315076
Core_2_LLC_loads 409393
Core_2_LLC_load_hit 144103
Core_2_LLC_load_miss 265290
Core_2_LLC_RFOs 340
Core_2_LLC_RFO_hit 30
Core_2_LLC_RFO_miss 310
Core_2_LLC_prefetches 0
Core_2_LLC_prefetch_hit 0
Core_2_LLC_prefetch_miss 0
Core_2_LLC_writebacks 143029
Core_2_LLC_writeback_hit 93553
Core_2_LLC_writeback_miss 49476
Core_2_LLC_prefetch_requested 0
Core_2_LLC_prefetch_dropped 0
Core_2_LLC_prefetch_issued 0
Core_2_LLC_prefetch_filled 0
Core_2_LLC_prefetch_useful 0
Core_2_LLC_prefetch_useless 0
Core_2_LLC_prefetch_late 0
Core_2_LLC_average_miss_latency 816.84403

Core_2_LLC_rq_access 2896118
Core_2_LLC_rq_forward 0
Core_2_LLC_rq_merged 0
Core_2_LLC_rq_to_cache 2896108
Core_2_LLC_rq_full 0

Core_2_LLC_wq_access 1735868
Core_2_LLC_wq_forward 10
Core_2_LLC_wq_merged 0
Core_2_LLC_wq_to_cache 1735868
Core_2_LLC_wq_full 0

Core_2_LLC_pq_access 0
Core_2_LLC_pq_forward 0
Core_2_LLC_pq_merged 0
Core_2_LLC_pq_to_cache 0
Core_2_LLC_pq_full 0

Core_2_LLC_acc_epochs 1197505
Core_2_LLC_acc_level_0 1197505
Core_2_LLC_acc_level_1 0
Core_2_LLC_acc_level_2 0
Core_2_LLC_acc_level_3 0
Core_2_LLC_acc_level_4 0
Core_2_LLC_acc_level_5 0
Core_2_LLC_acc_level_6 0
Core_2_LLC_acc_level_7 0
Core_2_LLC_acc_level_8 0
Core_2_LLC_acc_level_9 0

Core_2_major_page_fault 0
Core_2_minor_page_fault 4361

Core_3_instructions 150000000
Core_3_cycles 1203914741
Core_3_IPC 0.12459

Core_3_branch_prediction_accuracy 99.49779
Core_3_branch_MPKI 1.14945
Core_3_average_ROB_occupancy_at_mispredict 129.07397

Core_3_L1D_total_access 24749793
Core_3_L1D_total_hit 23583572
Core_3_L1D_total_miss 1166221
Core_3_L1D_loads 14492333
Core_3_L1D_load_hit 13379077
Core_3_L1D_load_miss 1113256
Core_3_L1D_RFOs 10257460
Core_3_L1D_RFO_hit 10204495
Core_3_L1D_RFO_miss 52965
Core_3_L1D_prefetches 0
Core_3_L1D_prefetch_hit 0
Core_3_L1D_prefetch_miss 0
Core_3_L1D_writebacks 0
Core_3_L1D_writeback_hit 0
Core_3_L1D_writeback_miss 0
Core_3_L1D_prefetch_requested 0
Core_3_L1D_prefetch_dropped 0
Core_3_L1D_prefetch_issued 0
Core_3_L1D_prefetch_filled 0
Core_3_L1D_prefetch_useful 0
Core_3_L1D_prefetch_useless 0
Core_3_L1D_prefetch_late 0
Core_3_L1D_average_miss_latency 166.26283

Core_3_L1D_rq_access 21408902
Core_3_L1D_rq_forward 0
Core_3_L1D_rq_merged 6840122
Core_3_L1D_rq_to_cache 14568775
Core_3_L1D_rq_full 0

Core_3_L1D_wq_access 11292077
Core_3_L1D_wq_forward 5
Core_3_L1D_wq_merged 803242
Core_3_L1D_wq_to_cache 10488835
Core_3_L1D_wq_full 12752

Core_3_L1D_pq_access 0
Core_3_L1D_pq_forward 0
Core_3_L1D_pq_merged 0
Core_3_L1D_pq_to_cache 0
Core_3_L1D_pq_full 0

Core_3_L1D_acc_epochs 160307
Core_3_L1D_acc_level_0 160307
Core_3_L1D_acc_level_1 0
Core_3_L1D_acc_level_2 0
Core_3_L1D_acc_level_3 0
Core_3_L1D_acc_level_4 0
Core_3_L1D_acc_level_5 0
Core_3_L1D_acc_level_6 0
Core_3_L1D_acc_level_7 0
Core_3_L1D_acc_level_8 0
Core_3_L1D_acc_level_9 0

Core_3_L1I_total_access 41554263
Core_3_L1I_total_hit 41542191
Core_3_L1I_total_miss 12072
Core_3_L1I_loads 41554263
Core_3_L1I_load_hit 41542191
Core_3_L1I_load_miss 12072
Core_3_L1I_RFOs 0
Core_3_L1I_RFO_hit 0
Core_3_L1I_RFO_miss 0
Core_3_L1I_prefetches 0
Core_3_L1I_prefetch_hit 0
Core_3_L1I_prefetch_miss 0
Core_3_L1I_writebacks 0
Core_3_L1I_writeback_hit 0
Core_3_L1I_writeback_miss 0
Core_3_L1I_prefetch_requested 0
Core_3_L1I_prefetch_dropped 0
Core_3_L1I_prefetch_issued 0
Core_3_L1I_prefetch_filled 0
Core_3_L1I_prefetch_useful 0
Core_3_L1I_prefetch_useless 0
Core_3_L1I_prefetch_late 0
Core_3_L1I_average_miss_latency 175.44317

Core_3_L1I_rq_access 149999753
Core_3_L1I_rq_forward 0
Core_3_L1I_rq_merged 108435929
Core_3_L1I_rq_to_cache 41563824
Core_3_L1I_rq_full 0

Core_3_L1I_wq_access 0
Core_3_L1I_wq_forward 0
Core_3_L1I_wq_merged 0
Core_3_L1I_wq_to_cache 0
Core_3_L1I_wq_full 0

Core_3_L1I_pq_access 0
Core_3_L1I_pq_forward 0
Core_3_L1I_pq_merged 0
Core_3_L1I_pq_to_cache 0
Core_3_L1I_pq_full 0

Core_3_L1I_acc_epochs 160307
Core_3_L1I_acc_level_0 160307
Core_3_L1I_acc_level_1 0
Core_3_L1I_acc_level_2 0
Core_3_L1I_acc_level_3 0
Core_3_L1I_acc_level_4 0
Core_3_L1I_acc_level_5 0
Core_3_L1I_acc_level_6 0
Core_3_L1I_acc_level_7 0
Core_3_L1I_acc_level_8 0
Core_3_L1I_acc_level_9 0

Core_3_L2C_total_access 1892222
Core_3_L2C_total_hit 983331
Core_3_L2C_total_miss 908891
Core_3_L2C_loads 1125327
Core_3_L2C_load_hit 261352
Core_3_L2C_load_miss 863975
Core_3_L2C_RFOs 52964
Core_3_L2C_RFO_hit 9476
Core_3_L2C_RFO_miss 43488
Core_3_L2C_prefetches 0
Core_3_L2C_prefetch_hit 0
Core_3_L2C_prefetch_miss 0
Core_3_L2C_writebacks 713931
Core_3_L2C_writeback_hit 712503
Core_3_L2C_writeback_miss 1428
Core_3_L2C_prefetch_requested 0
Core_3_L2C_prefetch_dropped 0
Core_3_L2C_prefetch_issued 0
Core_3_L2C_prefetch_filled 0
Core_3_L2C_prefetch_useful 0
Core_3_L2C_prefetch_useless 0
Core_3_L2C_prefetch_late 0
Core_3_L2C_average_miss_latency 117.56805

Core_3_L2C_rq_access 1178293
Core_3_L2C_rq_forward 0
Core_3_L2C_rq_merged 0
Core_3_L2C_rq_to_cache 1178291
Core_3_L2C_rq_full 0

Core_3_L2C_wq_access 713931
Core_3_L2C_wq_forward 2
Core_3_L2C_wq_merged 0
Core_3_L2C_wq_to_cache 713931
Core_3_L2C_wq_full 0

Core_3_L2C_pq_access 0
Core_3_L2C_pq_forward 0
Core_3_L2C_pq_merged 0
Core_3_L2C_pq_to_cache 0
Core_3_L2C_pq_full 0

Core_3_L2C_acc_epochs 160307
Core_3_L2C_acc_level_0 160307
Core_3_L2C_acc_level_1 0
Core_3_L2C_acc_level_2 0
Core_3_L2C_acc_level_3 0
Core_3_L2C_acc_level_4 0
Core_3_L2C_acc_level_5 0
Core_3_L2C_acc_level_6 0
Core_3_L2C_acc_level_7 0
Core_3_L2C_acc_level_8 0
Core_3_L2C_acc_level_9 0

Core_3_LLC_total_access 1447643
Core_3_LLC_total_hit 1206856
Core_3_LLC_total_miss 240787
Core_3_LLC_loads 863972
Core_3_LLC_load_hit 659016
Core_3_LLC_load_miss 204956
Core_3_LLC_RFOs 43488
Core_3_LLC_RFO_hit 32938
Core_3_LLC_RFO_miss 10550
Core_3_LLC_prefetches 0
Core_3_LLC_prefetch_hit 0
Core_3_LLC_prefetch_miss 0
Core_3_LLC_writebacks 540183
Core_3_LLC_writeback_hit 514902
Core_3_LLC_writeback_miss 25281
Core_3_LLC_prefetch_requested 0
Core_3_LLC_prefetch_dropped 0
Core_3_LLC_prefetch_issued 0
Core_3_LLC_prefetch_filled 0
Core_3_LLC_prefetch_useful 0
Core_3_LLC_prefetch_useless 0
Core_3_LLC_prefetch_late 0
Core_3_LLC_average_miss_latency 1068.86148

Core_3_LLC_rq_access 2896118
Core_3_LLC_rq_forward 0
Core_3_LLC_rq_merged 0
Core_3_LLC_rq_to_cache 2896108
Core_3_LLC_rq_full 0

Core_3_LLC_wq_access 1735868
Core_3_LLC_wq_forward 10
Core_3_LLC_wq_merged 0
Core_3_LLC_wq_to_cache 1735868
Core_3_LLC_wq_full 0

Core_3_LLC_pq_access 0
Core_3_LLC_pq_forward 0
Core_3_LLC_pq_merged 0
Core_3_LLC_pq_to_cache 0
Core_3_LLC_pq_full 0

Core_3_LLC_acc_epochs 1197505
Core_3_LLC_acc_level_0 1197505
Core_3_LLC_acc_level_1 0
Core_3_LLC_acc_level_2 0
Core_3_LLC_acc_level_3 0
Core_3_LLC_acc_level_4 0
Core_3_LLC_acc_level_5 0
Core_3_LLC_acc_level_6 0
Core_3_LLC_acc_level_7 0
Core_3_LLC_acc_level_8 0
Core_3_LLC_acc_level_9 0

Core_3_major_page_fault 0
Core_3_minor_page_fault 1707

Channel_0_RQ_row_buffer_hit 16863
Channel_0_RQ_row_buffer_miss 659811
Channel_0_WQ_row_buffer_hit 22839
Channel_0_WQ_row_buffer_miss 377547
Channel_0_WQ_full 0
Channel_0_dbus_congested 52788

Channel_1_RQ_row_buffer_hit 16724
Channel_1_RQ_row_buffer_miss 659764
Channel_1_WQ_row_buffer_hit 22297
Channel_1_WQ_row_buffer_miss 377865
Channel_1_WQ_full 0
Channel_1_dbus_congested 52236

avg_congested_cycle 9

DRAM_bw_pochs 4790018
DRAM_bw_level_0 4788476
DRAM_bw_level_1 799
DRAM_bw_level_2 661
DRAM_bw_level_3 82
