*************************************************
   ChampSim Multicore Out-of-Order Simulator
   Last compiled: Mar 31 2025 20:14:32
*************************************************
parsing config file: /data3/config/mlop.ini

trace_0 /data3/CLOUD9/traces/cloud9_phase3_core0.trace.xz
trace_1 /data3/CLOUD9/traces/cloud9_phase3_core1.trace.xz
trace_2 /data3/CLOUD9/traces/cloud9_phase3_core2.trace.xz
trace_3 /data3/CLOUD9/traces/cloud9_phase3_core3.trace.xz
adding L2C_PREFETCHER: MLOP
adding L2C_PREFETCHER: MLOP
adding L2C_PREFETCHER: MLOP
adding L2C_PREFETCHER: MLOP
Initialize SHIP state
warmup_instructions 50000000
simulation_instructions 150000000
champsim_seed 7346
measure_ipc 0
measure_ipc_epoch 1000
measure_dram_bw 1
measure_dram_bw_epoch 256
measure_cache_acc 1
measure_cache_acc_epoch 1024
l1d_perfect 0
l2c_perfect 0
llc_perfect 0
l1d_semi_perfect 0
l2c_semi_perfect 0
llc_semi_perfect 0
semi_perfect_cache_page_buffer_size 64

num_cpus 4
cpu_freq 4000
dram_io_freq 2400
page_size 4096
block_size 64
max_read_per_cycle 8
max_fill_per_cycle 1
dram_channels 2
log2_dram_channels 1
dram_ranks 1
dram_banks 8
dram_rows 65536
dram_columns 128
dram_row_size 8
dram_size 8192
dram_pages 2097152

fetch_width 6
decode_width 6
exec_width 4
lq_width 2
sq_width 2
retire_width 4
scheduler_size 128
branch_mispredict_penalty 20
rob_size 256
lq_size 72
sq_size 56
num_instr_destinations_sparc 4
num_instr_destinations 2
num_instr_sources 4

itlb_set 16
itlb_way 8
itlb_rq_size 16
itlb_wq_size 16
itlb_pq_size 0
itlb_mshr_size 8
itlb_latency 1

dtlb_set 16
dtlb_way 4
dtlb_rq_size 16
dtlb_wq_size 16
dtlb_pq_size 0
dtlb_mshr_size 8
dtlb_latency 1

stlb_set 128
stlb_way 12
stlb_rq_size 32
stlb_wq_size 32
stlb_pq_size 0
stlb_mshr_size 16
stlb_latency 8

l1i_size 32
l1i_set 64
l1i_way 8
l1i_rq_size 64
l1i_wq_size 64
l1i_pq_size 8
l1i_mshr_size 8
l1i_latency 1

l1d_size 32
l1d_set 64
l1d_way 8
l1d_rq_size 64
l1d_wq_size 64
l1d_pq_size 8
l1d_mshr_size 16
l1d_latency 4

l2c_size 256
l2c_set 512
l2c_way 8
l2c_rq_size 32
l2c_wq_size 32
l2c_pq_size 32
l2c_mshr_size 32
l2c_latency 10

llc_size 8192
llc_set 8192
llc_way 16
llc_rq_size 128
llc_wq_size 128
llc_pq_size 128
llc_mshr_size 256
llc_latency 20

dram_channel_width 8
dram_wq_size 64
dram_rq_size 64
tRP 15
tRCD 15
tCAS 12.5
dram_dbus_turn_around_time 30
dram_write_high_wm 56
dram_write_low_wm 48
min_dram_writes_per_switch 16
dram_mtps 2400
dram_dbus_return_time 13

mlop_pref_degree 16
mlop_num_updates 500
mlop_l1d_thresh 2
mlop_l2c_thresh 0.75
mlop_llc_thresh 0.3
mlop_debug_level 0
mlop_blocks_in_cache 4096
mlop_blocks_in_zone 64
mlop_amt_size 2048
mlop_PF_DEGREE 16
mlop_NUM_UPDATES 500
mlop_L1D_THRESH 1000
mlop_L2C_THRESH 375
mlop_LLC_THRESH 150
mlop_ORIGIN 63
mlop_MAX_OFFSET 63
mlop_MIN_OFFSET -63
mlop_ORIGIN 63
mlop_NUM_OFFSETS 127


Heartbeat CPU  3 instructions:    1000003 cycles:     401363 heartbeat IPC: 2.49152 cumulative IPC: 2.49152 (Simulation time: 0 hr 0 min 6 sec) 
Heartbeat CPU  0 instructions:    1000001 cycles:     435696 heartbeat IPC: 2.29518 cumulative IPC: 2.29518 (Simulation time: 0 hr 0 min 6 sec) 
Heartbeat CPU  1 instructions:    1000001 cycles:     435728 heartbeat IPC: 2.29501 cumulative IPC: 2.29501 (Simulation time: 0 hr 0 min 6 sec) 
Heartbeat CPU  2 instructions:    1000000 cycles:     496642 heartbeat IPC: 2.01352 cumulative IPC: 2.01352 (Simulation time: 0 hr 0 min 7 sec) 
Heartbeat CPU  3 instructions:    2000003 cycles:     799792 heartbeat IPC: 2.50986 cumulative IPC: 2.50065 (Simulation time: 0 hr 0 min 12 sec) 
Heartbeat CPU  0 instructions:    2000003 cycles:     851945 heartbeat IPC: 2.40241 cumulative IPC: 2.34757 (Simulation time: 0 hr 0 min 13 sec) 
Heartbeat CPU  1 instructions:    2000003 cycles:     871288 heartbeat IPC: 2.29590 cumulative IPC: 2.29546 (Simulation time: 0 hr 0 min 13 sec) 
Heartbeat CPU  2 instructions:    2000001 cycles:     928599 heartbeat IPC: 2.31505 cumulative IPC: 2.15378 (Simulation time: 0 hr 0 min 14 sec) 
Heartbeat CPU  3 instructions:    3000003 cycles:    1195105 heartbeat IPC: 2.52964 cumulative IPC: 2.51024 (Simulation time: 0 hr 0 min 18 sec) 
Heartbeat CPU  0 instructions:    3000003 cycles:    1270142 heartbeat IPC: 2.39122 cumulative IPC: 2.36194 (Simulation time: 0 hr 0 min 20 sec) 
Heartbeat CPU  1 instructions:    3000001 cycles:    1299225 heartbeat IPC: 2.33679 cumulative IPC: 2.30907 (Simulation time: 0 hr 0 min 20 sec) 
Heartbeat CPU  2 instructions:    3000001 cycles:    1365946 heartbeat IPC: 2.28651 cumulative IPC: 2.19628 (Simulation time: 0 hr 0 min 21 sec) 
Heartbeat CPU  3 instructions:    4000000 cycles:    1589360 heartbeat IPC: 2.53642 cumulative IPC: 2.51674 (Simulation time: 0 hr 0 min 24 sec) 
Heartbeat CPU  0 instructions:    4000000 cycles:    1703541 heartbeat IPC: 2.30734 cumulative IPC: 2.34805 (Simulation time: 0 hr 0 min 26 sec) 
Heartbeat CPU  1 instructions:    4000000 cycles:    1763244 heartbeat IPC: 2.15508 cumulative IPC: 2.26855 (Simulation time: 0 hr 0 min 27 sec) 
Heartbeat CPU  2 instructions:    4000000 cycles:    1820498 heartbeat IPC: 2.19997 cumulative IPC: 2.19720 (Simulation time: 0 hr 0 min 28 sec) 
Heartbeat CPU  3 instructions:    5000001 cycles:    1982063 heartbeat IPC: 2.54646 cumulative IPC: 2.52262 (Simulation time: 0 hr 0 min 30 sec) 
Heartbeat CPU  0 instructions:    5000001 cycles:    2156073 heartbeat IPC: 2.20979 cumulative IPC: 2.31903 (Simulation time: 0 hr 0 min 33 sec) 
Heartbeat CPU  2 instructions:    5000000 cycles:    2241564 heartbeat IPC: 2.37492 cumulative IPC: 2.23059 (Simulation time: 0 hr 0 min 34 sec) 
Heartbeat CPU  1 instructions:    5000002 cycles:    2251883 heartbeat IPC: 2.04650 cumulative IPC: 2.22036 (Simulation time: 0 hr 0 min 34 sec) 
Heartbeat CPU  3 instructions:    6000002 cycles:    2378227 heartbeat IPC: 2.52421 cumulative IPC: 2.52289 (Simulation time: 0 hr 0 min 36 sec) 
Heartbeat CPU  0 instructions:    6000000 cycles:    2601532 heartbeat IPC: 2.24487 cumulative IPC: 2.30633 (Simulation time: 0 hr 0 min 39 sec) 
Heartbeat CPU  1 instructions:    6000001 cycles:    2688483 heartbeat IPC: 2.29042 cumulative IPC: 2.23174 (Simulation time: 0 hr 0 min 41 sec) 
Heartbeat CPU  2 instructions:    6000001 cycles:    2735296 heartbeat IPC: 2.02539 cumulative IPC: 2.19355 (Simulation time: 0 hr 0 min 41 sec) 
Heartbeat CPU  3 instructions:    7000000 cycles:    2778468 heartbeat IPC: 2.49849 cumulative IPC: 2.51937 (Simulation time: 0 hr 0 min 42 sec) 
Heartbeat CPU  0 instructions:    7000002 cycles:    3065616 heartbeat IPC: 2.15479 cumulative IPC: 2.28339 (Simulation time: 0 hr 0 min 46 sec) 
Heartbeat CPU  1 instructions:    7000000 cycles:    3137792 heartbeat IPC: 2.22564 cumulative IPC: 2.23087 (Simulation time: 0 hr 0 min 47 sec) 
Heartbeat CPU  2 instructions:    7000000 cycles:    3164318 heartbeat IPC: 2.33088 cumulative IPC: 2.21217 (Simulation time: 0 hr 0 min 48 sec) 
Heartbeat CPU  3 instructions:    8000000 cycles:    3173420 heartbeat IPC: 2.53195 cumulative IPC: 2.52094 (Simulation time: 0 hr 0 min 48 sec) 
Heartbeat CPU  0 instructions:    8000000 cycles:    3514253 heartbeat IPC: 2.22897 cumulative IPC: 2.27644 (Simulation time: 0 hr 0 min 53 sec) 
Heartbeat CPU  3 instructions:    9000000 cycles:    3567624 heartbeat IPC: 2.53676 cumulative IPC: 2.52269 (Simulation time: 0 hr 0 min 54 sec) 
Heartbeat CPU  2 instructions:    8000000 cycles:    3582381 heartbeat IPC: 2.39198 cumulative IPC: 2.23315 (Simulation time: 0 hr 0 min 54 sec) 
Heartbeat CPU  1 instructions:    8000000 cycles:    3589838 heartbeat IPC: 2.21216 cumulative IPC: 2.22851 (Simulation time: 0 hr 0 min 54 sec) 
Heartbeat CPU  0 instructions:    9000001 cycles:    3961453 heartbeat IPC: 2.23614 cumulative IPC: 2.27189 (Simulation time: 0 hr 1 min 0 sec) 
Heartbeat CPU  3 instructions:   10000000 cycles:    3962182 heartbeat IPC: 2.53448 cumulative IPC: 2.52386 (Simulation time: 0 hr 1 min 0 sec) 
Heartbeat CPU  2 instructions:    9000003 cycles:    4004025 heartbeat IPC: 2.37168 cumulative IPC: 2.24774 (Simulation time: 0 hr 1 min 1 sec) 
Heartbeat CPU  1 instructions:    9000001 cycles:    4023193 heartbeat IPC: 2.30758 cumulative IPC: 2.23703 (Simulation time: 0 hr 1 min 1 sec) 
Heartbeat CPU  3 instructions:   11000002 cycles:    4355633 heartbeat IPC: 2.54162 cumulative IPC: 2.52547 (Simulation time: 0 hr 1 min 6 sec) 
Heartbeat CPU  0 instructions:   10000003 cycles:    4412093 heartbeat IPC: 2.21907 cumulative IPC: 2.26650 (Simulation time: 0 hr 1 min 7 sec) 
Heartbeat CPU  2 instructions:   10000002 cycles:    4421283 heartbeat IPC: 2.39660 cumulative IPC: 2.26179 (Simulation time: 0 hr 1 min 7 sec) 
Heartbeat CPU  1 instructions:   10000000 cycles:    4511426 heartbeat IPC: 2.04820 cumulative IPC: 2.21659 (Simulation time: 0 hr 1 min 8 sec) 
Heartbeat CPU  3 instructions:   12000000 cycles:    4747095 heartbeat IPC: 2.55452 cumulative IPC: 2.52786 (Simulation time: 0 hr 1 min 12 sec) 
Heartbeat CPU  0 instructions:   11000003 cycles:    4896145 heartbeat IPC: 2.06589 cumulative IPC: 2.24667 (Simulation time: 0 hr 1 min 14 sec) 
Heartbeat CPU  1 instructions:   11000000 cycles:    4945127 heartbeat IPC: 2.30574 cumulative IPC: 2.22441 (Simulation time: 0 hr 1 min 14 sec) 
Heartbeat CPU  2 instructions:   11000001 cycles:    5000175 heartbeat IPC: 1.72744 cumulative IPC: 2.19992 (Simulation time: 0 hr 1 min 15 sec) 
Heartbeat CPU  3 instructions:   13000001 cycles:    5137513 heartbeat IPC: 2.56136 cumulative IPC: 2.53041 (Simulation time: 0 hr 1 min 17 sec) 
Heartbeat CPU  0 instructions:   12000000 cycles:    5313912 heartbeat IPC: 2.39367 cumulative IPC: 2.25822 (Simulation time: 0 hr 1 min 20 sec) 
Heartbeat CPU  1 instructions:   12000000 cycles:    5364354 heartbeat IPC: 2.38534 cumulative IPC: 2.23699 (Simulation time: 0 hr 1 min 21 sec) 
Heartbeat CPU  2 instructions:   12000000 cycles:    5427980 heartbeat IPC: 2.33751 cumulative IPC: 2.21077 (Simulation time: 0 hr 1 min 22 sec) 
Heartbeat CPU  3 instructions:   14000001 cycles:    5528064 heartbeat IPC: 2.56049 cumulative IPC: 2.53253 (Simulation time: 0 hr 1 min 23 sec) 
Heartbeat CPU  0 instructions:   13000002 cycles:    5748794 heartbeat IPC: 2.29948 cumulative IPC: 2.26134 (Simulation time: 0 hr 1 min 27 sec) 
Heartbeat CPU  1 instructions:   13000001 cycles:    5786882 heartbeat IPC: 2.36671 cumulative IPC: 2.24646 (Simulation time: 0 hr 1 min 27 sec) 
Heartbeat CPU  2 instructions:   13000000 cycles:    5856097 heartbeat IPC: 2.33581 cumulative IPC: 2.21991 (Simulation time: 0 hr 1 min 29 sec) 
Heartbeat CPU  3 instructions:   15000002 cycles:    5918883 heartbeat IPC: 2.55873 cumulative IPC: 2.53426 (Simulation time: 0 hr 1 min 30 sec) 
Heartbeat CPU  0 instructions:   14000003 cycles:    6177740 heartbeat IPC: 2.33130 cumulative IPC: 2.26620 (Simulation time: 0 hr 1 min 34 sec) 
Heartbeat CPU  1 instructions:   14000001 cycles:    6212595 heartbeat IPC: 2.34900 cumulative IPC: 2.25349 (Simulation time: 0 hr 1 min 34 sec) 
Heartbeat CPU  2 instructions:   14000001 cycles:    6289281 heartbeat IPC: 2.30849 cumulative IPC: 2.22601 (Simulation time: 0 hr 1 min 35 sec) 
Heartbeat CPU  3 instructions:   16000000 cycles:    6311351 heartbeat IPC: 2.54797 cumulative IPC: 2.53512 (Simulation time: 0 hr 1 min 36 sec) 
Heartbeat CPU  0 instructions:   15000002 cycles:    6597270 heartbeat IPC: 2.38362 cumulative IPC: 2.27367 (Simulation time: 0 hr 1 min 39 sec) 
Heartbeat CPU  3 instructions:   17000001 cycles:    6702235 heartbeat IPC: 2.55831 cumulative IPC: 2.53647 (Simulation time: 0 hr 1 min 41 sec) 
Heartbeat CPU  2 instructions:   15000000 cycles:    6753017 heartbeat IPC: 2.15640 cumulative IPC: 2.22123 (Simulation time: 0 hr 1 min 42 sec) 
Heartbeat CPU  1 instructions:   15000001 cycles:    6800332 heartbeat IPC: 1.70144 cumulative IPC: 2.20577 (Simulation time: 0 hr 1 min 42 sec) 
Heartbeat CPU  0 instructions:   16000000 cycles:    7004888 heartbeat IPC: 2.45327 cumulative IPC: 2.28412 (Simulation time: 0 hr 1 min 46 sec) 
Heartbeat CPU  3 instructions:   18000000 cycles:    7092931 heartbeat IPC: 2.55953 cumulative IPC: 2.53774 (Simulation time: 0 hr 1 min 47 sec) 
Heartbeat CPU  2 instructions:   16000000 cycles:    7200664 heartbeat IPC: 2.23390 cumulative IPC: 2.22202 (Simulation time: 0 hr 1 min 48 sec) 
Heartbeat CPU  1 instructions:   16000000 cycles:    7232342 heartbeat IPC: 2.31476 cumulative IPC: 2.21228 (Simulation time: 0 hr 1 min 49 sec) 
Heartbeat CPU  3 instructions:   19000002 cycles:    7484201 heartbeat IPC: 2.55578 cumulative IPC: 2.53868 (Simulation time: 0 hr 1 min 53 sec) 
Heartbeat CPU  0 instructions:   17000000 cycles:    7558264 heartbeat IPC: 1.80709 cumulative IPC: 2.24919 (Simulation time: 0 hr 1 min 54 sec) 
Heartbeat CPU  2 instructions:   17000000 cycles:    7640786 heartbeat IPC: 2.27210 cumulative IPC: 2.22490 (Simulation time: 0 hr 1 min 55 sec) 
Heartbeat CPU  1 instructions:   17000000 cycles:    7666948 heartbeat IPC: 2.30093 cumulative IPC: 2.21731 (Simulation time: 0 hr 1 min 55 sec) 
Heartbeat CPU  3 instructions:   20000000 cycles:    7873910 heartbeat IPC: 2.56601 cumulative IPC: 2.54003 (Simulation time: 0 hr 1 min 58 sec) 
Heartbeat CPU  0 instructions:   18000003 cycles:    7983601 heartbeat IPC: 2.35108 cumulative IPC: 2.25462 (Simulation time: 0 hr 2 min 0 sec) 
Heartbeat CPU  2 instructions:   18000003 cycles:    8066303 heartbeat IPC: 2.35009 cumulative IPC: 2.23151 (Simulation time: 0 hr 2 min 1 sec) 
Heartbeat CPU  1 instructions:   18000000 cycles:    8100625 heartbeat IPC: 2.30586 cumulative IPC: 2.22205 (Simulation time: 0 hr 2 min 2 sec) 
Heartbeat CPU  3 instructions:   21000001 cycles:    8271536 heartbeat IPC: 2.51493 cumulative IPC: 2.53883 (Simulation time: 0 hr 2 min 4 sec) 
Heartbeat CPU  0 instructions:   19000001 cycles:    8400232 heartbeat IPC: 2.40020 cumulative IPC: 2.26184 (Simulation time: 0 hr 2 min 6 sec) 
Heartbeat CPU  2 instructions:   19000000 cycles:    8518260 heartbeat IPC: 2.21259 cumulative IPC: 2.23050 (Simulation time: 0 hr 2 min 8 sec) 
Heartbeat CPU  1 instructions:   19000002 cycles:    8568290 heartbeat IPC: 2.13829 cumulative IPC: 2.21748 (Simulation time: 0 hr 2 min 8 sec) 
Heartbeat CPU  3 instructions:   22000001 cycles:    8664466 heartbeat IPC: 2.54498 cumulative IPC: 2.53911 (Simulation time: 0 hr 2 min 10 sec) 
Heartbeat CPU  2 instructions:   20000000 cycles:    8941228 heartbeat IPC: 2.36424 cumulative IPC: 2.23683 (Simulation time: 0 hr 2 min 14 sec) 
Heartbeat CPU  0 instructions:   20000000 cycles:    8957016 heartbeat IPC: 1.79603 cumulative IPC: 2.23289 (Simulation time: 0 hr 2 min 14 sec) 
Heartbeat CPU  1 instructions:   20000000 cycles:    9016299 heartbeat IPC: 2.23209 cumulative IPC: 2.21820 (Simulation time: 0 hr 2 min 15 sec) 
Heartbeat CPU  3 instructions:   23000000 cycles:    9055004 heartbeat IPC: 2.56057 cumulative IPC: 2.54003 (Simulation time: 0 hr 2 min 15 sec) 
Heartbeat CPU  0 instructions:   21000001 cycles:    9425009 heartbeat IPC: 2.13679 cumulative IPC: 2.22811 (Simulation time: 0 hr 2 min 21 sec) 
Heartbeat CPU  2 instructions:   21000000 cycles:    9435773 heartbeat IPC: 2.02206 cumulative IPC: 2.22557 (Simulation time: 0 hr 2 min 21 sec) 
Heartbeat CPU  3 instructions:   24000000 cycles:    9443376 heartbeat IPC: 2.57485 cumulative IPC: 2.54146 (Simulation time: 0 hr 2 min 21 sec) 
Heartbeat CPU  1 instructions:   21000000 cycles:    9450599 heartbeat IPC: 2.30256 cumulative IPC: 2.22208 (Simulation time: 0 hr 2 min 21 sec) 
Heartbeat CPU  3 instructions:   25000000 cycles:    9832608 heartbeat IPC: 2.56916 cumulative IPC: 2.54256 (Simulation time: 0 hr 2 min 27 sec) 
Heartbeat CPU  0 instructions:   22000003 cycles:    9849954 heartbeat IPC: 2.35325 cumulative IPC: 2.23351 (Simulation time: 0 hr 2 min 28 sec) 
Heartbeat CPU  2 instructions:   22000003 cycles:    9854381 heartbeat IPC: 2.38888 cumulative IPC: 2.23251 (Simulation time: 0 hr 2 min 28 sec) 
Heartbeat CPU  1 instructions:   22000002 cycles:    9898693 heartbeat IPC: 2.23168 cumulative IPC: 2.22252 (Simulation time: 0 hr 2 min 28 sec) 
Heartbeat CPU  3 instructions:   26000000 cycles:   10223998 heartbeat IPC: 2.55500 cumulative IPC: 2.54304 (Simulation time: 0 hr 2 min 33 sec) 
Heartbeat CPU  0 instructions:   23000001 cycles:   10273020 heartbeat IPC: 2.36369 cumulative IPC: 2.23887 (Simulation time: 0 hr 2 min 34 sec) 
Heartbeat CPU  2 instructions:   23000002 cycles:   10275497 heartbeat IPC: 2.37464 cumulative IPC: 2.23833 (Simulation time: 0 hr 2 min 34 sec) 
Heartbeat CPU  1 instructions:   23000001 cycles:   10344790 heartbeat IPC: 2.24166 cumulative IPC: 2.22334 (Simulation time: 0 hr 2 min 35 sec) 
Heartbeat CPU  3 instructions:   27000000 cycles:   10616242 heartbeat IPC: 2.54943 cumulative IPC: 2.54327 (Simulation time: 0 hr 2 min 40 sec) 
Heartbeat CPU  0 instructions:   24000000 cycles:   10688000 heartbeat IPC: 2.40975 cumulative IPC: 2.24551 (Simulation time: 0 hr 2 min 41 sec) 
Heartbeat CPU  2 instructions:   24000000 cycles:   10697522 heartbeat IPC: 2.36952 cumulative IPC: 2.24351 (Simulation time: 0 hr 2 min 41 sec) 
Heartbeat CPU  1 instructions:   24000000 cycles:   10774983 heartbeat IPC: 2.32454 cumulative IPC: 2.22738 (Simulation time: 0 hr 2 min 42 sec) 
Heartbeat CPU  3 instructions:   28000000 cycles:   11007770 heartbeat IPC: 2.55410 cumulative IPC: 2.54366 (Simulation time: 0 hr 2 min 46 sec) 
Heartbeat CPU  0 instructions:   25000003 cycles:   11078918 heartbeat IPC: 2.55809 cumulative IPC: 2.25654 (Simulation time: 0 hr 2 min 47 sec) 
Heartbeat CPU  2 instructions:   25000003 cycles:   11113660 heartbeat IPC: 2.40306 cumulative IPC: 2.24948 (Simulation time: 0 hr 2 min 47 sec) 
Heartbeat CPU  1 instructions:   25000002 cycles:   11270535 heartbeat IPC: 2.01796 cumulative IPC: 2.21817 (Simulation time: 0 hr 2 min 50 sec) 
Heartbeat CPU  3 instructions:   29000003 cycles:   11400517 heartbeat IPC: 2.54618 cumulative IPC: 2.54374 (Simulation time: 0 hr 2 min 52 sec) 
Heartbeat CPU  0 instructions:   26000001 cycles:   11468082 heartbeat IPC: 2.56961 cumulative IPC: 2.26716 (Simulation time: 0 hr 2 min 53 sec) 
Heartbeat CPU  2 instructions:   26000000 cycles:   11695958 heartbeat IPC: 1.71733 cumulative IPC: 2.22299 (Simulation time: 0 hr 2 min 56 sec) 
Heartbeat CPU  1 instructions:   26000000 cycles:   11698265 heartbeat IPC: 2.33792 cumulative IPC: 2.22255 (Simulation time: 0 hr 2 min 56 sec) 
Heartbeat CPU  3 instructions:   30000001 cycles:   11791328 heartbeat IPC: 2.55878 cumulative IPC: 2.54424 (Simulation time: 0 hr 2 min 58 sec) 
Heartbeat CPU  0 instructions:   27000000 cycles:   11874124 heartbeat IPC: 2.46280 cumulative IPC: 2.27385 (Simulation time: 0 hr 2 min 59 sec) 
Heartbeat CPU  1 instructions:   27000001 cycles:   12120949 heartbeat IPC: 2.36584 cumulative IPC: 2.22755 (Simulation time: 0 hr 3 min 3 sec) 
Heartbeat CPU  2 instructions:   27000003 cycles:   12127402 heartbeat IPC: 2.31780 cumulative IPC: 2.22636 (Simulation time: 0 hr 3 min 3 sec) 
Heartbeat CPU  3 instructions:   31000000 cycles:   12183128 heartbeat IPC: 2.55232 cumulative IPC: 2.54450 (Simulation time: 0 hr 3 min 4 sec) 
Heartbeat CPU  0 instructions:   28000000 cycles:   12285391 heartbeat IPC: 2.43151 cumulative IPC: 2.27913 (Simulation time: 0 hr 3 min 6 sec) 
Heartbeat CPU  1 instructions:   28000000 cycles:   12542051 heartbeat IPC: 2.37472 cumulative IPC: 2.23249 (Simulation time: 0 hr 3 min 10 sec) 
Heartbeat CPU  2 instructions:   28000000 cycles:   12550806 heartbeat IPC: 2.36180 cumulative IPC: 2.23093 (Simulation time: 0 hr 3 min 10 sec) 
Heartbeat CPU  3 instructions:   32000000 cycles:   12575104 heartbeat IPC: 2.55118 cumulative IPC: 2.54471 (Simulation time: 0 hr 3 min 10 sec) 
Heartbeat CPU  0 instructions:   29000002 cycles:   12737638 heartbeat IPC: 2.21119 cumulative IPC: 2.27672 (Simulation time: 0 hr 3 min 12 sec) 
Heartbeat CPU  1 instructions:   29000001 cycles:   12967789 heartbeat IPC: 2.34886 cumulative IPC: 2.23631 (Simulation time: 0 hr 3 min 16 sec) 
Heartbeat CPU  3 instructions:   33000002 cycles:   12968184 heartbeat IPC: 2.54402 cumulative IPC: 2.54469 (Simulation time: 0 hr 3 min 16 sec) 
Heartbeat CPU  2 instructions:   29000001 cycles:   12998844 heartbeat IPC: 2.23196 cumulative IPC: 2.23097 (Simulation time: 0 hr 3 min 16 sec) 
Heartbeat CPU  0 instructions:   30000000 cycles:   13192096 heartbeat IPC: 2.20042 cumulative IPC: 2.27409 (Simulation time: 0 hr 3 min 19 sec) 
Heartbeat CPU  3 instructions:   34000000 cycles:   13355379 heartbeat IPC: 2.58267 cumulative IPC: 2.54579 (Simulation time: 0 hr 3 min 21 sec) 
Heartbeat CPU  2 instructions:   30000000 cycles:   13467633 heartbeat IPC: 2.13315 cumulative IPC: 2.22756 (Simulation time: 0 hr 3 min 22 sec) 
Heartbeat CPU  1 instructions:   30000001 cycles:   13551919 heartbeat IPC: 1.71195 cumulative IPC: 2.21371 (Simulation time: 0 hr 3 min 24 sec) 
Heartbeat CPU  0 instructions:   31000002 cycles:   13647235 heartbeat IPC: 2.19714 cumulative IPC: 2.27152 (Simulation time: 0 hr 3 min 25 sec) 
Heartbeat CPU  3 instructions:   35000002 cycles:   13745180 heartbeat IPC: 2.56542 cumulative IPC: 2.54635 (Simulation time: 0 hr 3 min 27 sec) 
Heartbeat CPU  2 instructions:   31000001 cycles:   13892125 heartbeat IPC: 2.35576 cumulative IPC: 2.23148 (Simulation time: 0 hr 3 min 29 sec) 
Heartbeat CPU  1 instructions:   31000001 cycles:   13985429 heartbeat IPC: 2.30675 cumulative IPC: 2.21659 (Simulation time: 0 hr 3 min 30 sec) 
Heartbeat CPU  0 instructions:   32000000 cycles:   14099055 heartbeat IPC: 2.21327 cumulative IPC: 2.26966 (Simulation time: 0 hr 3 min 32 sec) 
Heartbeat CPU  3 instructions:   36000000 cycles:   14136177 heartbeat IPC: 2.55756 cumulative IPC: 2.54666 (Simulation time: 0 hr 3 min 32 sec) 
Heartbeat CPU  2 instructions:   32000000 cycles:   14336455 heartbeat IPC: 2.25058 cumulative IPC: 2.23207 (Simulation time: 0 hr 3 min 35 sec) 
Heartbeat CPU  1 instructions:   32000000 cycles:   14419113 heartbeat IPC: 2.30582 cumulative IPC: 2.21928 (Simulation time: 0 hr 3 min 37 sec) 
Heartbeat CPU  3 instructions:   37000001 cycles:   14530266 heartbeat IPC: 2.53750 cumulative IPC: 2.54641 (Simulation time: 0 hr 3 min 38 sec) 
Heartbeat CPU  0 instructions:   33000000 cycles:   14546909 heartbeat IPC: 2.23287 cumulative IPC: 2.26852 (Simulation time: 0 hr 3 min 39 sec) 
Heartbeat CPU  2 instructions:   33000001 cycles:   14787070 heartbeat IPC: 2.21919 cumulative IPC: 2.23168 (Simulation time: 0 hr 3 min 42 sec) 
Heartbeat CPU  1 instructions:   33000001 cycles:   14859295 heartbeat IPC: 2.27179 cumulative IPC: 2.22083 (Simulation time: 0 hr 3 min 43 sec) 
Heartbeat CPU  3 instructions:   38000002 cycles:   14923174 heartbeat IPC: 2.54513 cumulative IPC: 2.54638 (Simulation time: 0 hr 3 min 44 sec) 
Heartbeat CPU  0 instructions:   34000000 cycles:   14993528 heartbeat IPC: 2.23904 cumulative IPC: 2.26765 (Simulation time: 0 hr 3 min 45 sec) 
Heartbeat CPU  2 instructions:   34000000 cycles:   15209906 heartbeat IPC: 2.36498 cumulative IPC: 2.23539 (Simulation time: 0 hr 3 min 48 sec) 
Heartbeat CPU  3 instructions:   39000002 cycles:   15315795 heartbeat IPC: 2.54699 cumulative IPC: 2.54639 (Simulation time: 0 hr 3 min 50 sec) 
Heartbeat CPU  1 instructions:   34000000 cycles:   15327893 heartbeat IPC: 2.13402 cumulative IPC: 2.21818 (Simulation time: 0 hr 3 min 50 sec) 
Heartbeat CPU  0 instructions:   35000003 cycles:   15438875 heartbeat IPC: 2.24545 cumulative IPC: 2.26700 (Simulation time: 0 hr 3 min 52 sec) 
Heartbeat CPU  2 instructions:   35000000 cycles:   15630581 heartbeat IPC: 2.37713 cumulative IPC: 2.23920 (Simulation time: 0 hr 3 min 55 sec) 
Heartbeat CPU  3 instructions:   40000000 cycles:   15708726 heartbeat IPC: 2.54497 cumulative IPC: 2.54636 (Simulation time: 0 hr 3 min 56 sec) 
Heartbeat CPU  1 instructions:   35000001 cycles:   15759090 heartbeat IPC: 2.31913 cumulative IPC: 2.22094 (Simulation time: 0 hr 3 min 56 sec) 
Heartbeat CPU  0 instructions:   36000000 cycles:   15894184 heartbeat IPC: 2.19630 cumulative IPC: 2.26498 (Simulation time: 0 hr 3 min 58 sec) 
Heartbeat CPU  3 instructions:   41000000 cycles:   16099852 heartbeat IPC: 2.55672 cumulative IPC: 2.54661 (Simulation time: 0 hr 4 min 2 sec) 
Heartbeat CPU  2 instructions:   36000000 cycles:   16121322 heartbeat IPC: 2.03773 cumulative IPC: 2.23307 (Simulation time: 0 hr 4 min 2 sec) 
Heartbeat CPU  1 instructions:   36000000 cycles:   16211528 heartbeat IPC: 2.21025 cumulative IPC: 2.22064 (Simulation time: 0 hr 4 min 3 sec) 
Heartbeat CPU  0 instructions:   37000000 cycles:   16321005 heartbeat IPC: 2.34290 cumulative IPC: 2.26702 (Simulation time: 0 hr 4 min 5 sec) 
Heartbeat CPU  3 instructions:   42000003 cycles:   16493681 heartbeat IPC: 2.53918 cumulative IPC: 2.54643 (Simulation time: 0 hr 4 min 8 sec) 
Heartbeat CPU  2 instructions:   37000003 cycles:   16541265 heartbeat IPC: 2.38128 cumulative IPC: 2.23683 (Simulation time: 0 hr 4 min 9 sec) 
Heartbeat CPU  1 instructions:   37000000 cycles:   16665769 heartbeat IPC: 2.20147 cumulative IPC: 2.22012 (Simulation time: 0 hr 4 min 11 sec) 
Heartbeat CPU  0 instructions:   38000001 cycles:   16742660 heartbeat IPC: 2.37161 cumulative IPC: 2.26965 (Simulation time: 0 hr 4 min 12 sec) 
Heartbeat CPU  3 instructions:   43000003 cycles:   16884378 heartbeat IPC: 2.55953 cumulative IPC: 2.54673 (Simulation time: 0 hr 4 min 15 sec) 
Heartbeat CPU  2 instructions:   38000001 cycles:   16962441 heartbeat IPC: 2.37430 cumulative IPC: 2.24024 (Simulation time: 0 hr 4 min 16 sec) 
Heartbeat CPU  1 instructions:   38000000 cycles:   17093260 heartbeat IPC: 2.33923 cumulative IPC: 2.22310 (Simulation time: 0 hr 4 min 18 sec) 
Heartbeat CPU  0 instructions:   39000000 cycles:   17186328 heartbeat IPC: 2.25394 cumulative IPC: 2.26925 (Simulation time: 0 hr 4 min 19 sec) 
Heartbeat CPU  3 instructions:   44000000 cycles:   17276173 heartbeat IPC: 2.55235 cumulative IPC: 2.54686 (Simulation time: 0 hr 4 min 21 sec) 
Heartbeat CPU  2 instructions:   39000000 cycles:   17377826 heartbeat IPC: 2.40740 cumulative IPC: 2.24424 (Simulation time: 0 hr 4 min 22 sec) 
Heartbeat CPU  1 instructions:   39000000 cycles:   17516795 heartbeat IPC: 2.36108 cumulative IPC: 2.22643 (Simulation time: 0 hr 4 min 24 sec) 
Heartbeat CPU  0 instructions:   40000000 cycles:   17638757 heartbeat IPC: 2.21029 cumulative IPC: 2.26773 (Simulation time: 0 hr 4 min 26 sec) 
Heartbeat CPU  3 instructions:   45000001 cycles:   17669086 heartbeat IPC: 2.54510 cumulative IPC: 2.54682 (Simulation time: 0 hr 4 min 27 sec) 
Heartbeat CPU  2 instructions:   40000000 cycles:   17954540 heartbeat IPC: 1.73396 cumulative IPC: 2.22785 (Simulation time: 0 hr 4 min 30 sec) 
Heartbeat CPU  1 instructions:   40000000 cycles:   18017080 heartbeat IPC: 1.99886 cumulative IPC: 2.22012 (Simulation time: 0 hr 4 min 32 sec) 
Heartbeat CPU  3 instructions:   46000003 cycles:   18060858 heartbeat IPC: 2.55251 cumulative IPC: 2.54694 (Simulation time: 0 hr 4 min 32 sec) 
Heartbeat CPU  0 instructions:   41000001 cycles:   18075482 heartbeat IPC: 2.28977 cumulative IPC: 2.26827 (Simulation time: 0 hr 4 min 33 sec) 
Heartbeat CPU  2 instructions:   41000002 cycles:   18380890 heartbeat IPC: 2.34550 cumulative IPC: 2.23058 (Simulation time: 0 hr 4 min 38 sec) 
Heartbeat CPU  1 instructions:   41000000 cycles:   18437976 heartbeat IPC: 2.37588 cumulative IPC: 2.22367 (Simulation time: 0 hr 4 min 39 sec) 
Heartbeat CPU  3 instructions:   47000002 cycles:   18460232 heartbeat IPC: 2.50392 cumulative IPC: 2.54601 (Simulation time: 0 hr 4 min 39 sec) 
Heartbeat CPU  0 instructions:   42000000 cycles:   18501164 heartbeat IPC: 2.34917 cumulative IPC: 2.27013 (Simulation time: 0 hr 4 min 40 sec) 
Heartbeat CPU  2 instructions:   42000001 cycles:   18809042 heartbeat IPC: 2.33562 cumulative IPC: 2.23297 (Simulation time: 0 hr 4 min 45 sec) 
Heartbeat CPU  3 instructions:   48000000 cycles:   18851822 heartbeat IPC: 2.55369 cumulative IPC: 2.54617 (Simulation time: 0 hr 4 min 45 sec) 
Heartbeat CPU  1 instructions:   42000001 cycles:   18861488 heartbeat IPC: 2.36121 cumulative IPC: 2.22676 (Simulation time: 0 hr 4 min 45 sec) 
Heartbeat CPU  0 instructions:   43000001 cycles:   18943448 heartbeat IPC: 2.26099 cumulative IPC: 2.26991 (Simulation time: 0 hr 4 min 47 sec) 
Heartbeat CPU  2 instructions:   43000003 cycles:   19231679 heartbeat IPC: 2.36610 cumulative IPC: 2.23589 (Simulation time: 0 hr 4 min 51 sec) 
Heartbeat CPU  3 instructions:   49000002 cycles:   19243854 heartbeat IPC: 2.55082 cumulative IPC: 2.54627 (Simulation time: 0 hr 4 min 52 sec) 
Heartbeat CPU  1 instructions:   43000002 cycles:   19281540 heartbeat IPC: 2.38066 cumulative IPC: 2.23011 (Simulation time: 0 hr 4 min 52 sec) 
Heartbeat CPU  0 instructions:   44000000 cycles:   19396297 heartbeat IPC: 2.20824 cumulative IPC: 2.26847 (Simulation time: 0 hr 4 min 54 sec) 
Heartbeat CPU  3 instructions:   50000003 cycles:   19631994 heartbeat IPC: 2.57639 cumulative IPC: 2.54686 (Simulation time: 0 hr 4 min 57 sec) 
Heartbeat CPU  2 instructions:   44000000 cycles:   19687413 heartbeat IPC: 2.19426 cumulative IPC: 2.23493 (Simulation time: 0 hr 4 min 58 sec) 
Heartbeat CPU  1 instructions:   44000000 cycles:   19717828 heartbeat IPC: 2.29206 cumulative IPC: 2.23148 (Simulation time: 0 hr 4 min 59 sec) 
Heartbeat CPU  0 instructions:   45000000 cycles:   19852371 heartbeat IPC: 2.19263 cumulative IPC: 2.26673 (Simulation time: 0 hr 5 min 0 sec) 
Heartbeat CPU  3 instructions:   51000003 cycles:   20022782 heartbeat IPC: 2.55893 cumulative IPC: 0.04994 (Simulation time: 0 hr 5 min 3 sec) 
Heartbeat CPU  2 instructions:   45000003 cycles:   20141747 heartbeat IPC: 2.20103 cumulative IPC: 2.23417 (Simulation time: 0 hr 5 min 4 sec) 
Heartbeat CPU  0 instructions:   46000002 cycles:   20295108 heartbeat IPC: 2.25868 cumulative IPC: 2.26656 (Simulation time: 0 hr 5 min 7 sec) 
Heartbeat CPU  1 instructions:   45000000 cycles:   20298490 heartbeat IPC: 1.72217 cumulative IPC: 2.21691 (Simulation time: 0 hr 5 min 7 sec) 
Heartbeat CPU  3 instructions:   52000000 cycles:   20427515 heartbeat IPC: 2.47076 cumulative IPC: 0.09791 (Simulation time: 0 hr 5 min 9 sec) 
Heartbeat CPU  2 instructions:   46000002 cycles:   20566564 heartbeat IPC: 2.35395 cumulative IPC: 2.23664 (Simulation time: 0 hr 5 min 11 sec) 
Heartbeat CPU  1 instructions:   46000001 cycles:   20730933 heartbeat IPC: 2.31245 cumulative IPC: 2.21891 (Simulation time: 0 hr 5 min 14 sec) 
Heartbeat CPU  0 instructions:   47000000 cycles:   20756171 heartbeat IPC: 2.16890 cumulative IPC: 2.26439 (Simulation time: 0 hr 5 min 14 sec) 
Heartbeat CPU  3 instructions:   53000001 cycles:   20816873 heartbeat IPC: 2.56833 cumulative IPC: 0.14411 (Simulation time: 0 hr 5 min 15 sec) 
Heartbeat CPU  2 instructions:   47000002 cycles:   21005715 heartbeat IPC: 2.27712 cumulative IPC: 2.23749 (Simulation time: 0 hr 5 min 18 sec) 
Heartbeat CPU  1 instructions:   47000002 cycles:   21159964 heartbeat IPC: 2.33084 cumulative IPC: 2.22118 (Simulation time: 0 hr 5 min 20 sec) 
Heartbeat CPU  0 instructions:   48000000 cycles:   21204719 heartbeat IPC: 2.22942 cumulative IPC: 2.26365 (Simulation time: 0 hr 5 min 21 sec) 
Heartbeat CPU  3 instructions:   54000001 cycles:   21207939 heartbeat IPC: 2.55711 cumulative IPC: 0.18861 (Simulation time: 0 hr 5 min 21 sec) 
Heartbeat CPU  2 instructions:   48000000 cycles:   21459996 heartbeat IPC: 2.20128 cumulative IPC: 2.23672 (Simulation time: 0 hr 5 min 25 sec) 
Heartbeat CPU  3 instructions:   55000003 cycles:   21600653 heartbeat IPC: 2.54639 cumulative IPC: 0.23147 (Simulation time: 0 hr 5 min 27 sec) 
Heartbeat CPU  0 instructions:   49000000 cycles:   21601518 heartbeat IPC: 2.52017 cumulative IPC: 2.26836 (Simulation time: 0 hr 5 min 27 sec) 
Heartbeat CPU  1 instructions:   48000000 cycles:   21617247 heartbeat IPC: 2.18683 cumulative IPC: 2.22045 (Simulation time: 0 hr 5 min 28 sec) 
Heartbeat CPU  2 instructions:   49000001 cycles:   21880215 heartbeat IPC: 2.37971 cumulative IPC: 2.23947 (Simulation time: 0 hr 5 min 32 sec) 
Heartbeat CPU  3 instructions:   56000000 cycles:   21991122 heartbeat IPC: 2.56102 cumulative IPC: 0.27284 (Simulation time: 0 hr 5 min 34 sec) 
Heartbeat CPU  0 instructions:   50000002 cycles:   21994155 heartbeat IPC: 2.54689 cumulative IPC: 2.27333 (Simulation time: 0 hr 5 min 34 sec) 
Heartbeat CPU  1 instructions:   49000003 cycles:   22079478 heartbeat IPC: 2.16343 cumulative IPC: 2.21926 (Simulation time: 0 hr 5 min 35 sec) 
Heartbeat CPU  2 instructions:   50000003 cycles:   22372719 heartbeat IPC: 2.03044 cumulative IPC: 2.23486 (Simulation time: 0 hr 5 min 40 sec) 
Heartbeat CPU  3 instructions:   57000001 cycles:   22382287 heartbeat IPC: 2.55647 cumulative IPC: 0.31275 (Simulation time: 0 hr 5 min 40 sec) 
Heartbeat CPU  0 instructions:   51000000 cycles:   22387779 heartbeat IPC: 2.54049 cumulative IPC: 0.04467 (Simulation time: 0 hr 5 min 40 sec) 
Heartbeat CPU  1 instructions:   50000003 cycles:   22508877 heartbeat IPC: 2.32884 cumulative IPC: 2.22135 (Simulation time: 0 hr 5 min 42 sec) 

Warmup complete CPU  0 instructions:   51306748 cycles:   22508876 (Simulation time: 0 hr 5 min 42 sec) 
Warmup complete CPU  1 instructions:   50000003 cycles:   22508877 (Simulation time: 0 hr 5 min 42 sec) 
Warmup complete CPU  2 instructions:   50319800 cycles:   22508876 (Simulation time: 0 hr 5 min 42 sec) 
Warmup complete CPU  3 instructions:   57325095 cycles:   22508876 (Simulation time: 0 hr 5 min 42 sec) 

Heartbeat CPU  3 instructions:   58000000 cycles:   26986344 heartbeat IPC: 0.21720 cumulative IPC: 0.15073 (Simulation time: 0 hr 5 min 48 sec) 
Heartbeat CPU  0 instructions:   52000000 cycles:   28169003 heartbeat IPC: 0.17297 cumulative IPC: 0.12248 (Simulation time: 0 hr 5 min 50 sec) 
Heartbeat CPU  2 instructions:   51000003 cycles:   28176331 heartbeat IPC: 0.17231 cumulative IPC: 0.12002 (Simulation time: 0 hr 5 min 50 sec) 
Heartbeat CPU  1 instructions:   51000000 cycles:   30747524 heartbeat IPC: 0.12138 cumulative IPC: 0.12138 (Simulation time: 0 hr 5 min 54 sec) 
Heartbeat CPU  3 instructions:   59000001 cycles:   33587890 heartbeat IPC: 0.15148 cumulative IPC: 0.15118 (Simulation time: 0 hr 5 min 58 sec) 
Heartbeat CPU  0 instructions:   53000003 cycles:   36351570 heartbeat IPC: 0.12221 cumulative IPC: 0.12232 (Simulation time: 0 hr 6 min 1 sec) 
Heartbeat CPU  2 instructions:   52000000 cycles:   36481088 heartbeat IPC: 0.12041 cumulative IPC: 0.12025 (Simulation time: 0 hr 6 min 2 sec) 
Heartbeat CPU  1 instructions:   52000000 cycles:   39088143 heartbeat IPC: 0.11990 cumulative IPC: 0.12063 (Simulation time: 0 hr 6 min 5 sec) 
Heartbeat CPU  3 instructions:   60000000 cycles:   40211836 heartbeat IPC: 0.15097 cumulative IPC: 0.15110 (Simulation time: 0 hr 6 min 7 sec) 
Heartbeat CPU  0 instructions:   54000001 cycles:   44332297 heartbeat IPC: 0.12530 cumulative IPC: 0.12341 (Simulation time: 0 hr 6 min 13 sec) 
Heartbeat CPU  2 instructions:   53000003 cycles:   44824474 heartbeat IPC: 0.11986 cumulative IPC: 0.12010 (Simulation time: 0 hr 6 min 14 sec) 
Heartbeat CPU  3 instructions:   61000000 cycles:   46837075 heartbeat IPC: 0.15094 cumulative IPC: 0.15106 (Simulation time: 0 hr 6 min 16 sec) 
Heartbeat CPU  1 instructions:   53000002 cycles:   47424950 heartbeat IPC: 0.11995 cumulative IPC: 0.12040 (Simulation time: 0 hr 6 min 17 sec) 
Heartbeat CPU  0 instructions:   55000001 cycles:   51654805 heartbeat IPC: 0.13657 cumulative IPC: 0.12672 (Simulation time: 0 hr 6 min 23 sec) 
Heartbeat CPU  2 instructions:   54000001 cycles:   53185225 heartbeat IPC: 0.11961 cumulative IPC: 0.11997 (Simulation time: 0 hr 6 min 25 sec) 
Heartbeat CPU  3 instructions:   62000001 cycles:   53440987 heartbeat IPC: 0.15143 cumulative IPC: 0.15113 (Simulation time: 0 hr 6 min 26 sec) 
Heartbeat CPU  1 instructions:   54000003 cycles:   55850020 heartbeat IPC: 0.11869 cumulative IPC: 0.11997 (Simulation time: 0 hr 6 min 29 sec) 
Heartbeat CPU  0 instructions:   56000000 cycles:   59420978 heartbeat IPC: 0.12876 cumulative IPC: 0.12715 (Simulation time: 0 hr 6 min 34 sec) 
Heartbeat CPU  3 instructions:   63000003 cycles:   60071069 heartbeat IPC: 0.15083 cumulative IPC: 0.15108 (Simulation time: 0 hr 6 min 35 sec) 
Heartbeat CPU  2 instructions:   55000000 cycles:   61816110 heartbeat IPC: 0.11586 cumulative IPC: 0.11907 (Simulation time: 0 hr 6 min 38 sec) 
Heartbeat CPU  1 instructions:   55000002 cycles:   64208102 heartbeat IPC: 0.11964 cumulative IPC: 0.11991 (Simulation time: 0 hr 6 min 41 sec) 
Heartbeat CPU  0 instructions:   57000003 cycles:   66521332 heartbeat IPC: 0.14084 cumulative IPC: 0.12936 (Simulation time: 0 hr 6 min 45 sec) 
Heartbeat CPU  3 instructions:   64000000 cycles:   66665171 heartbeat IPC: 0.15165 cumulative IPC: 0.15117 (Simulation time: 0 hr 6 min 45 sec) 
Heartbeat CPU  2 instructions:   56000000 cycles:   70198216 heartbeat IPC: 0.11930 cumulative IPC: 0.11911 (Simulation time: 0 hr 6 min 50 sec) 
Heartbeat CPU  1 instructions:   56000000 cycles:   72585374 heartbeat IPC: 0.11937 cumulative IPC: 0.11982 (Simulation time: 0 hr 6 min 53 sec) 
Heartbeat CPU  3 instructions:   65000001 cycles:   73312093 heartbeat IPC: 0.15045 cumulative IPC: 0.15107 (Simulation time: 0 hr 6 min 54 sec) 
Heartbeat CPU  0 instructions:   58000001 cycles:   73940242 heartbeat IPC: 0.13479 cumulative IPC: 0.13014 (Simulation time: 0 hr 6 min 55 sec) 
Heartbeat CPU  2 instructions:   57000000 cycles:   78618553 heartbeat IPC: 0.11876 cumulative IPC: 0.11906 (Simulation time: 0 hr 7 min 2 sec) 
Heartbeat CPU  3 instructions:   66000000 cycles:   79897712 heartbeat IPC: 0.15185 cumulative IPC: 0.15116 (Simulation time: 0 hr 7 min 4 sec) 
Heartbeat CPU  1 instructions:   57000000 cycles:   80985695 heartbeat IPC: 0.11904 cumulative IPC: 0.11971 (Simulation time: 0 hr 7 min 5 sec) 
Heartbeat CPU  0 instructions:   59000000 cycles:   81042898 heartbeat IPC: 0.14079 cumulative IPC: 0.13143 (Simulation time: 0 hr 7 min 5 sec) 
Heartbeat CPU  2 instructions:   58000002 cycles:   86198459 heartbeat IPC: 0.13193 cumulative IPC: 0.12059 (Simulation time: 0 hr 7 min 13 sec) 
Heartbeat CPU  3 instructions:   67000000 cycles:   86520079 heartbeat IPC: 0.15100 cumulative IPC: 0.15114 (Simulation time: 0 hr 7 min 14 sec) 
Heartbeat CPU  0 instructions:   60000000 cycles:   87689812 heartbeat IPC: 0.15045 cumulative IPC: 0.13337 (Simulation time: 0 hr 7 min 16 sec) 
Heartbeat CPU  1 instructions:   58000000 cycles:   89431890 heartbeat IPC: 0.11840 cumulative IPC: 0.11954 (Simulation time: 0 hr 7 min 19 sec) 
Heartbeat CPU  2 instructions:   59000002 cycles:   90851152 heartbeat IPC: 0.21493 cumulative IPC: 0.12701 (Simulation time: 0 hr 7 min 21 sec) 
Heartbeat CPU  3 instructions:   68000000 cycles:   93142861 heartbeat IPC: 0.15099 cumulative IPC: 0.15113 (Simulation time: 0 hr 7 min 25 sec) 
Heartbeat CPU  0 instructions:   61000001 cycles:   94403469 heartbeat IPC: 0.14895 cumulative IPC: 0.13483 (Simulation time: 0 hr 7 min 27 sec) 
Heartbeat CPU  2 instructions:   60000000 cycles:   97825369 heartbeat IPC: 0.14338 cumulative IPC: 0.12853 (Simulation time: 0 hr 7 min 32 sec) 
Heartbeat CPU  1 instructions:   59000001 cycles:   98105195 heartbeat IPC: 0.11530 cumulative IPC: 0.11905 (Simulation time: 0 hr 7 min 32 sec) 
Heartbeat CPU  3 instructions:   69000003 cycles:   99766081 heartbeat IPC: 0.15098 cumulative IPC: 0.15112 (Simulation time: 0 hr 7 min 34 sec) 
Heartbeat CPU  0 instructions:   62000001 cycles:  100798508 heartbeat IPC: 0.15637 cumulative IPC: 0.13659 (Simulation time: 0 hr 7 min 36 sec) 
Heartbeat CPU  2 instructions:   61000002 cycles:  106083615 heartbeat IPC: 0.12109 cumulative IPC: 0.12779 (Simulation time: 0 hr 7 min 44 sec) 
Heartbeat CPU  3 instructions:   70000002 cycles:  106373449 heartbeat IPC: 0.15135 cumulative IPC: 0.15114 (Simulation time: 0 hr 7 min 44 sec) 
Heartbeat CPU  1 instructions:   60000000 cycles:  106499908 heartbeat IPC: 0.11912 cumulative IPC: 0.11906 (Simulation time: 0 hr 7 min 44 sec) 
Heartbeat CPU  0 instructions:   63000001 cycles:  107146289 heartbeat IPC: 0.15754 cumulative IPC: 0.13816 (Simulation time: 0 hr 7 min 45 sec) 
Heartbeat CPU  3 instructions:   71000002 cycles:  113034144 heartbeat IPC: 0.15013 cumulative IPC: 0.15106 (Simulation time: 0 hr 7 min 54 sec) 
Heartbeat CPU  0 instructions:   64000000 cycles:  113603361 heartbeat IPC: 0.15487 cumulative IPC: 0.13934 (Simulation time: 0 hr 7 min 55 sec) 
Heartbeat CPU  2 instructions:   62000003 cycles:  114358791 heartbeat IPC: 0.12084 cumulative IPC: 0.12717 (Simulation time: 0 hr 7 min 56 sec) 
Heartbeat CPU  1 instructions:   61000000 cycles:  114993697 heartbeat IPC: 0.11773 cumulative IPC: 0.11894 (Simulation time: 0 hr 7 min 57 sec) 
Heartbeat CPU  3 instructions:   72000000 cycles:  119686286 heartbeat IPC: 0.15033 cumulative IPC: 0.15101 (Simulation time: 0 hr 8 min 4 sec) 
Heartbeat CPU  0 instructions:   65000002 cycles:  119821395 heartbeat IPC: 0.16082 cumulative IPC: 0.14071 (Simulation time: 0 hr 8 min 4 sec) 
Heartbeat CPU  2 instructions:   63000002 cycles:  122711908 heartbeat IPC: 0.11972 cumulative IPC: 0.12655 (Simulation time: 0 hr 8 min 8 sec) 
Heartbeat CPU  1 instructions:   62000002 cycles:  123352431 heartbeat IPC: 0.11964 cumulative IPC: 0.11900 (Simulation time: 0 hr 8 min 9 sec) 
Heartbeat CPU  0 instructions:   66000003 cycles:  126092028 heartbeat IPC: 0.15947 cumulative IPC: 0.14185 (Simulation time: 0 hr 8 min 14 sec) 
Heartbeat CPU  3 instructions:   73000002 cycles:  126307137 heartbeat IPC: 0.15104 cumulative IPC: 0.15101 (Simulation time: 0 hr 8 min 14 sec) 
Heartbeat CPU  1 instructions:   63000003 cycles:  128010522 heartbeat IPC: 0.21468 cumulative IPC: 0.12322 (Simulation time: 0 hr 8 min 17 sec) 
Heartbeat CPU  2 instructions:   64000000 cycles:  131095981 heartbeat IPC: 0.11927 cumulative IPC: 0.12598 (Simulation time: 0 hr 8 min 22 sec) 
Heartbeat CPU  0 instructions:   67000001 cycles:  132347598 heartbeat IPC: 0.15986 cumulative IPC: 0.14288 (Simulation time: 0 hr 8 min 24 sec) 
Heartbeat CPU  3 instructions:   74000000 cycles:  132968677 heartbeat IPC: 0.15012 cumulative IPC: 0.15096 (Simulation time: 0 hr 8 min 25 sec) 
Heartbeat CPU  1 instructions:   64000000 cycles:  133240777 heartbeat IPC: 0.19119 cumulative IPC: 0.12643 (Simulation time: 0 hr 8 min 26 sec) 
Heartbeat CPU  0 instructions:   68000000 cycles:  138725066 heartbeat IPC: 0.15680 cumulative IPC: 0.14364 (Simulation time: 0 hr 8 min 34 sec) 
Heartbeat CPU  2 instructions:   65000002 cycles:  139430176 heartbeat IPC: 0.11999 cumulative IPC: 0.12556 (Simulation time: 0 hr 8 min 35 sec) 
Heartbeat CPU  3 instructions:   75000003 cycles:  139635693 heartbeat IPC: 0.14999 cumulative IPC: 0.15090 (Simulation time: 0 hr 8 min 35 sec) 
Heartbeat CPU  1 instructions:   65000001 cycles:  141380672 heartbeat IPC: 0.12285 cumulative IPC: 0.12619 (Simulation time: 0 hr 8 min 38 sec) 
Heartbeat CPU  0 instructions:   69000000 cycles:  145214010 heartbeat IPC: 0.15411 cumulative IPC: 0.14419 (Simulation time: 0 hr 8 min 43 sec) 
Heartbeat CPU  3 instructions:   76000000 cycles:  146389067 heartbeat IPC: 0.14807 cumulative IPC: 0.15075 (Simulation time: 0 hr 8 min 45 sec) 
Heartbeat CPU  2 instructions:   66000003 cycles:  147751370 heartbeat IPC: 0.12018 cumulative IPC: 0.12520 (Simulation time: 0 hr 8 min 47 sec) 
Heartbeat CPU  1 instructions:   66000003 cycles:  149670536 heartbeat IPC: 0.12063 cumulative IPC: 0.12582 (Simulation time: 0 hr 8 min 50 sec) 
Heartbeat CPU  0 instructions:   70000000 cycles:  151076764 heartbeat IPC: 0.17057 cumulative IPC: 0.14540 (Simulation time: 0 hr 8 min 52 sec) 
Heartbeat CPU  3 instructions:   77000003 cycles:  153108842 heartbeat IPC: 0.14881 cumulative IPC: 0.15065 (Simulation time: 0 hr 8 min 55 sec) 
Heartbeat CPU  2 instructions:   67000003 cycles:  156117355 heartbeat IPC: 0.11953 cumulative IPC: 0.12484 (Simulation time: 0 hr 9 min 0 sec) 
Heartbeat CPU  1 instructions:   67000000 cycles:  157996270 heartbeat IPC: 0.12011 cumulative IPC: 0.12547 (Simulation time: 0 hr 9 min 2 sec) 
Heartbeat CPU  0 instructions:   71000001 cycles:  158585640 heartbeat IPC: 0.13318 cumulative IPC: 0.14472 (Simulation time: 0 hr 9 min 3 sec) 
Heartbeat CPU  3 instructions:   78000001 cycles:  159821993 heartbeat IPC: 0.14896 cumulative IPC: 0.15057 (Simulation time: 0 hr 9 min 5 sec) 
Heartbeat CPU  2 instructions:   68000000 cycles:  164513343 heartbeat IPC: 0.11910 cumulative IPC: 0.12450 (Simulation time: 0 hr 9 min 12 sec) 
Heartbeat CPU  0 instructions:   72000000 cycles:  166172514 heartbeat IPC: 0.13181 cumulative IPC: 0.14404 (Simulation time: 0 hr 9 min 14 sec) 
Heartbeat CPU  1 instructions:   68000000 cycles:  166365663 heartbeat IPC: 0.11948 cumulative IPC: 0.12512 (Simulation time: 0 hr 9 min 14 sec) 
Heartbeat CPU  3 instructions:   79000003 cycles:  166526336 heartbeat IPC: 0.14916 cumulative IPC: 0.15050 (Simulation time: 0 hr 9 min 15 sec) 
Heartbeat CPU  2 instructions:   69000002 cycles:  173171744 heartbeat IPC: 0.11549 cumulative IPC: 0.12399 (Simulation time: 0 hr 9 min 24 sec) 
Heartbeat CPU  3 instructions:   80000000 cycles:  173262801 heartbeat IPC: 0.14845 cumulative IPC: 0.15041 (Simulation time: 0 hr 9 min 24 sec) 
Heartbeat CPU  0 instructions:   73000002 cycles:  173533021 heartbeat IPC: 0.13586 cumulative IPC: 0.14364 (Simulation time: 0 hr 9 min 25 sec) 
Heartbeat CPU  1 instructions:   69000000 cycles:  174834983 heartbeat IPC: 0.11807 cumulative IPC: 0.12473 (Simulation time: 0 hr 9 min 27 sec) 
Heartbeat CPU  3 instructions:   81000001 cycles:  179995549 heartbeat IPC: 0.14853 cumulative IPC: 0.15033 (Simulation time: 0 hr 9 min 34 sec) 
Heartbeat CPU  0 instructions:   74000001 cycles:  180768544 heartbeat IPC: 0.13821 cumulative IPC: 0.14339 (Simulation time: 0 hr 9 min 35 sec) 
Heartbeat CPU  2 instructions:   70000003 cycles:  181550478 heartbeat IPC: 0.11935 cumulative IPC: 0.12374 (Simulation time: 0 hr 9 min 36 sec) 
Heartbeat CPU  1 instructions:   70000000 cycles:  183208535 heartbeat IPC: 0.11942 cumulative IPC: 0.12446 (Simulation time: 0 hr 9 min 39 sec) 
Heartbeat CPU  3 instructions:   82000002 cycles:  186741419 heartbeat IPC: 0.14824 cumulative IPC: 0.15024 (Simulation time: 0 hr 9 min 44 sec) 
Heartbeat CPU  0 instructions:   75000001 cycles:  187931432 heartbeat IPC: 0.13961 cumulative IPC: 0.14323 (Simulation time: 0 hr 9 min 46 sec) 
Heartbeat CPU  2 instructions:   71000003 cycles:  189972714 heartbeat IPC: 0.11873 cumulative IPC: 0.12349 (Simulation time: 0 hr 9 min 49 sec) 
Heartbeat CPU  1 instructions:   71000000 cycles:  191568599 heartbeat IPC: 0.11962 cumulative IPC: 0.12422 (Simulation time: 0 hr 9 min 51 sec) 
Heartbeat CPU  3 instructions:   83000002 cycles:  193449115 heartbeat IPC: 0.14908 cumulative IPC: 0.15020 (Simulation time: 0 hr 9 min 54 sec) 
Heartbeat CPU  0 instructions:   76000000 cycles:  194794330 heartbeat IPC: 0.14571 cumulative IPC: 0.14333 (Simulation time: 0 hr 9 min 56 sec) 
Heartbeat CPU  2 instructions:   72000000 cycles:  198399024 heartbeat IPC: 0.11868 cumulative IPC: 0.12326 (Simulation time: 0 hr 10 min 1 sec) 
Heartbeat CPU  1 instructions:   72000000 cycles:  200037325 heartbeat IPC: 0.11808 cumulative IPC: 0.12392 (Simulation time: 0 hr 10 min 4 sec) 
Heartbeat CPU  3 instructions:   84000000 cycles:  200155076 heartbeat IPC: 0.14912 cumulative IPC: 0.15016 (Simulation time: 0 hr 10 min 4 sec) 
Heartbeat CPU  0 instructions:   77000002 cycles:  201246771 heartbeat IPC: 0.15498 cumulative IPC: 0.14375 (Simulation time: 0 hr 10 min 6 sec) 
Heartbeat CPU  2 instructions:   73000000 cycles:  203405695 heartbeat IPC: 0.19973 cumulative IPC: 0.12538 (Simulation time: 0 hr 10 min 9 sec) 
Heartbeat CPU  3 instructions:   85000000 cycles:  206877719 heartbeat IPC: 0.14875 cumulative IPC: 0.15011 (Simulation time: 0 hr 10 min 15 sec) 
Heartbeat CPU  0 instructions:   78000003 cycles:  207534170 heartbeat IPC: 0.15905 cumulative IPC: 0.14427 (Simulation time: 0 hr 10 min 16 sec) 
Heartbeat CPU  1 instructions:   73000003 cycles:  208469785 heartbeat IPC: 0.11859 cumulative IPC: 0.12368 (Simulation time: 0 hr 10 min 17 sec) 
Heartbeat CPU  2 instructions:   74000001 cycles:  208896230 heartbeat IPC: 0.18213 cumulative IPC: 0.12705 (Simulation time: 0 hr 10 min 18 sec) 
Heartbeat CPU  0 instructions:   79000002 cycles:  213450157 heartbeat IPC: 0.16903 cumulative IPC: 0.14504 (Simulation time: 0 hr 10 min 25 sec) 
Heartbeat CPU  3 instructions:   86000002 cycles:  213652361 heartbeat IPC: 0.14761 cumulative IPC: 0.15002 (Simulation time: 0 hr 10 min 25 sec) 
Heartbeat CPU  2 instructions:   75000001 cycles:  215754531 heartbeat IPC: 0.14581 cumulative IPC: 0.12771 (Simulation time: 0 hr 10 min 28 sec) 
Heartbeat CPU  1 instructions:   74000000 cycles:  217085446 heartbeat IPC: 0.11607 cumulative IPC: 0.12334 (Simulation time: 0 hr 10 min 30 sec) 
Heartbeat CPU  0 instructions:   80000000 cycles:  219290898 heartbeat IPC: 0.17121 cumulative IPC: 0.14581 (Simulation time: 0 hr 10 min 33 sec) 
Heartbeat CPU  3 instructions:   87000000 cycles:  220399940 heartbeat IPC: 0.14820 cumulative IPC: 0.14996 (Simulation time: 0 hr 10 min 35 sec) 
Heartbeat CPU  2 instructions:   76000000 cycles:  222257002 heartbeat IPC: 0.15379 cumulative IPC: 0.12856 (Simulation time: 0 hr 10 min 37 sec) 
Heartbeat CPU  0 instructions:   81000000 cycles:  225215547 heartbeat IPC: 0.16879 cumulative IPC: 0.14648 (Simulation time: 0 hr 10 min 42 sec) 
Heartbeat CPU  1 instructions:   75000001 cycles:  225552557 heartbeat IPC: 0.11810 cumulative IPC: 0.12313 (Simulation time: 0 hr 10 min 42 sec) 
Heartbeat CPU  3 instructions:   88000000 cycles:  227094814 heartbeat IPC: 0.14937 cumulative IPC: 0.14994 (Simulation time: 0 hr 10 min 45 sec) 
Heartbeat CPU  2 instructions:   77000001 cycles:  229032098 heartbeat IPC: 0.14760 cumulative IPC: 0.12919 (Simulation time: 0 hr 10 min 47 sec) 
Heartbeat CPU  0 instructions:   82000003 cycles:  231133676 heartbeat IPC: 0.16897 cumulative IPC: 0.14712 (Simulation time: 0 hr 10 min 50 sec) 
Heartbeat CPU  3 instructions:   89000003 cycles:  233802659 heartbeat IPC: 0.14908 cumulative IPC: 0.14991 (Simulation time: 0 hr 10 min 54 sec) 
Heartbeat CPU  1 instructions:   76000000 cycles:  234025153 heartbeat IPC: 0.11803 cumulative IPC: 0.12292 (Simulation time: 0 hr 10 min 55 sec) 
Heartbeat CPU  2 instructions:   78000000 cycles:  236240917 heartbeat IPC: 0.13872 cumulative IPC: 0.12951 (Simulation time: 0 hr 10 min 58 sec) 
Heartbeat CPU  0 instructions:   83000003 cycles:  237225830 heartbeat IPC: 0.16415 cumulative IPC: 0.14760 (Simulation time: 0 hr 10 min 59 sec) 
Heartbeat CPU  3 instructions:   90000001 cycles:  240540186 heartbeat IPC: 0.14842 cumulative IPC: 0.14986 (Simulation time: 0 hr 11 min 4 sec) 
Heartbeat CPU  1 instructions:   77000000 cycles:  241396576 heartbeat IPC: 0.13566 cumulative IPC: 0.12335 (Simulation time: 0 hr 11 min 6 sec) 
Heartbeat CPU  2 instructions:   79000003 cycles:  242844667 heartbeat IPC: 0.15143 cumulative IPC: 0.13017 (Simulation time: 0 hr 11 min 8 sec) 
Heartbeat CPU  0 instructions:   84000000 cycles:  243232931 heartbeat IPC: 0.16647 cumulative IPC: 0.14812 (Simulation time: 0 hr 11 min 9 sec) 
Heartbeat CPU  1 instructions:   78000002 cycles:  245992438 heartbeat IPC: 0.21759 cumulative IPC: 0.12529 (Simulation time: 0 hr 11 min 13 sec) 
Heartbeat CPU  3 instructions:   91000003 cycles:  247246982 heartbeat IPC: 0.14910 cumulative IPC: 0.14984 (Simulation time: 0 hr 11 min 15 sec) 
Heartbeat CPU  0 instructions:   85000003 cycles:  249229702 heartbeat IPC: 0.16676 cumulative IPC: 0.14861 (Simulation time: 0 hr 11 min 18 sec) 
Heartbeat CPU  2 instructions:   80000000 cycles:  249441640 heartbeat IPC: 0.15158 cumulative IPC: 0.13079 (Simulation time: 0 hr 11 min 19 sec) 
Heartbeat CPU  1 instructions:   79000003 cycles:  252054537 heartbeat IPC: 0.16496 cumulative IPC: 0.12634 (Simulation time: 0 hr 11 min 23 sec) 
Heartbeat CPU  3 instructions:   92000000 cycles:  253924720 heartbeat IPC: 0.14975 cumulative IPC: 0.14984 (Simulation time: 0 hr 11 min 25 sec) 
Heartbeat CPU  0 instructions:   86000002 cycles:  255293543 heartbeat IPC: 0.16491 cumulative IPC: 0.14904 (Simulation time: 0 hr 11 min 27 sec) 
Heartbeat CPU  2 instructions:   81000002 cycles:  256183580 heartbeat IPC: 0.14833 cumulative IPC: 0.13129 (Simulation time: 0 hr 11 min 29 sec) 
Heartbeat CPU  1 instructions:   80000000 cycles:  260272411 heartbeat IPC: 0.12169 cumulative IPC: 0.12618 (Simulation time: 0 hr 11 min 35 sec) 
Heartbeat CPU  3 instructions:   93000001 cycles:  260578810 heartbeat IPC: 0.15028 cumulative IPC: 0.14985 (Simulation time: 0 hr 11 min 35 sec) 
Heartbeat CPU  0 instructions:   87000000 cycles:  261370885 heartbeat IPC: 0.16455 cumulative IPC: 0.14943 (Simulation time: 0 hr 11 min 36 sec) 
Heartbeat CPU  2 instructions:   82000001 cycles:  263264622 heartbeat IPC: 0.14122 cumulative IPC: 0.13159 (Simulation time: 0 hr 11 min 39 sec) 
Heartbeat CPU  3 instructions:   94000002 cycles:  267268848 heartbeat IPC: 0.14948 cumulative IPC: 0.14984 (Simulation time: 0 hr 11 min 45 sec) 
Heartbeat CPU  0 instructions:   88000000 cycles:  267306817 heartbeat IPC: 0.16847 cumulative IPC: 0.14989 (Simulation time: 0 hr 11 min 45 sec) 
Heartbeat CPU  1 instructions:   81000001 cycles:  268539947 heartbeat IPC: 0.12096 cumulative IPC: 0.12600 (Simulation time: 0 hr 11 min 47 sec) 
Heartbeat CPU  2 instructions:   83000000 cycles:  270244602 heartbeat IPC: 0.14327 cumulative IPC: 0.13192 (Simulation time: 0 hr 11 min 49 sec) 
Heartbeat CPU  0 instructions:   89000001 cycles:  273351414 heartbeat IPC: 0.16544 cumulative IPC: 0.15027 (Simulation time: 0 hr 11 min 54 sec) 
Heartbeat CPU  3 instructions:   95000002 cycles:  273956045 heartbeat IPC: 0.14954 cumulative IPC: 0.14983 (Simulation time: 0 hr 11 min 54 sec) 
Heartbeat CPU  1 instructions:   82000002 cycles:  276764159 heartbeat IPC: 0.12159 cumulative IPC: 0.12586 (Simulation time: 0 hr 11 min 58 sec) 
Heartbeat CPU  2 instructions:   84000000 cycles:  277725966 heartbeat IPC: 0.13367 cumulative IPC: 0.13197 (Simulation time: 0 hr 12 min 0 sec) 
Heartbeat CPU  0 instructions:   90000000 cycles:  279370765 heartbeat IPC: 0.16613 cumulative IPC: 0.15064 (Simulation time: 0 hr 12 min 2 sec) 
Heartbeat CPU  3 instructions:   96000000 cycles:  280665853 heartbeat IPC: 0.14904 cumulative IPC: 0.14981 (Simulation time: 0 hr 12 min 4 sec) 
Heartbeat CPU  2 instructions:   85000002 cycles:  283841125 heartbeat IPC: 0.16353 cumulative IPC: 0.13271 (Simulation time: 0 hr 12 min 9 sec) 
Heartbeat CPU  1 instructions:   83000003 cycles:  285089753 heartbeat IPC: 0.12011 cumulative IPC: 0.12568 (Simulation time: 0 hr 12 min 11 sec) 
Heartbeat CPU  0 instructions:   91000003 cycles:  285440924 heartbeat IPC: 0.16474 cumulative IPC: 0.15096 (Simulation time: 0 hr 12 min 11 sec) 
Heartbeat CPU  3 instructions:   97000002 cycles:  287388492 heartbeat IPC: 0.14875 cumulative IPC: 0.14978 (Simulation time: 0 hr 12 min 14 sec) 
Heartbeat CPU  2 instructions:   86000002 cycles:  289542995 heartbeat IPC: 0.17538 cumulative IPC: 0.13362 (Simulation time: 0 hr 12 min 17 sec) 
Heartbeat CPU  0 instructions:   92000000 cycles:  291423847 heartbeat IPC: 0.16714 cumulative IPC: 0.15132 (Simulation time: 0 hr 12 min 20 sec) 
Heartbeat CPU  1 instructions:   84000000 cycles:  293404090 heartbeat IPC: 0.12027 cumulative IPC: 0.12551 (Simulation time: 0 hr 12 min 23 sec) 
Heartbeat CPU  3 instructions:   98000001 cycles:  294113384 heartbeat IPC: 0.14870 cumulative IPC: 0.14976 (Simulation time: 0 hr 12 min 24 sec) 
Heartbeat CPU  2 instructions:   87000003 cycles:  295256952 heartbeat IPC: 0.17501 cumulative IPC: 0.13448 (Simulation time: 0 hr 12 min 26 sec) 
Heartbeat CPU  0 instructions:   93000003 cycles:  297398921 heartbeat IPC: 0.16736 cumulative IPC: 0.15167 (Simulation time: 0 hr 12 min 29 sec) 
Heartbeat CPU  3 instructions:   99000000 cycles:  300817519 heartbeat IPC: 0.14916 cumulative IPC: 0.14974 (Simulation time: 0 hr 12 min 34 sec) 
Heartbeat CPU  2 instructions:   88000000 cycles:  300936529 heartbeat IPC: 0.17607 cumulative IPC: 0.13533 (Simulation time: 0 hr 12 min 34 sec) 
Heartbeat CPU  1 instructions:   85000001 cycles:  301681000 heartbeat IPC: 0.12082 cumulative IPC: 0.12537 (Simulation time: 0 hr 12 min 35 sec) 
Heartbeat CPU  0 instructions:   94000003 cycles:  304931090 heartbeat IPC: 0.13276 cumulative IPC: 0.15117 (Simulation time: 0 hr 12 min 40 sec) 
Heartbeat CPU  2 instructions:   89000001 cycles:  306567886 heartbeat IPC: 0.17758 cumulative IPC: 0.13617 (Simulation time: 0 hr 12 min 42 sec) 
*** Reached end of trace for Core: 3 Repeating trace: /data3/CLOUD9/traces/cloud9_phase3_core3.trace.xz
Heartbeat CPU  3 instructions:  100000000 cycles:  307549745 heartbeat IPC: 0.14854 cumulative IPC: 0.14972 (Simulation time: 0 hr 12 min 43 sec) 
Heartbeat CPU  0 instructions:   95000000 cycles:  309203233 heartbeat IPC: 0.23407 cumulative IPC: 0.15240 (Simulation time: 0 hr 12 min 46 sec) 
Heartbeat CPU  1 instructions:   86000000 cycles:  309948771 heartbeat IPC: 0.12095 cumulative IPC: 0.12524 (Simulation time: 0 hr 12 min 48 sec) 
Heartbeat CPU  2 instructions:   90000002 cycles:  313059376 heartbeat IPC: 0.15405 cumulative IPC: 0.13657 (Simulation time: 0 hr 12 min 53 sec) 
Heartbeat CPU  3 instructions:  101000002 cycles:  314135803 heartbeat IPC: 0.15184 cumulative IPC: 0.14976 (Simulation time: 0 hr 12 min 54 sec) 
Heartbeat CPU  0 instructions:   96000000 cycles:  315451949 heartbeat IPC: 0.16003 cumulative IPC: 0.15257 (Simulation time: 0 hr 12 min 56 sec) 
Heartbeat CPU  1 instructions:   87000002 cycles:  318302554 heartbeat IPC: 0.11971 cumulative IPC: 0.12509 (Simulation time: 0 hr 13 min 0 sec) 
Heartbeat CPU  2 instructions:   91000000 cycles:  319647668 heartbeat IPC: 0.15178 cumulative IPC: 0.13691 (Simulation time: 0 hr 13 min 2 sec) 
Heartbeat CPU  3 instructions:  102000002 cycles:  320682558 heartbeat IPC: 0.15275 cumulative IPC: 0.14983 (Simulation time: 0 hr 13 min 4 sec) 
Heartbeat CPU  0 instructions:   97000001 cycles:  322139007 heartbeat IPC: 0.14954 cumulative IPC: 0.15250 (Simulation time: 0 hr 13 min 6 sec) 
Heartbeat CPU  0 instructions:   98000001 cycles:  325843091 heartbeat IPC: 0.26997 cumulative IPC: 0.15393 (Simulation time: 0 hr 13 min 12 sec) 
Heartbeat CPU  2 instructions:   92000000 cycles:  326259256 heartbeat IPC: 0.15125 cumulative IPC: 0.13722 (Simulation time: 0 hr 13 min 13 sec) 
Heartbeat CPU  1 instructions:   88000000 cycles:  326643523 heartbeat IPC: 0.11989 cumulative IPC: 0.12494 (Simulation time: 0 hr 13 min 14 sec) 
Heartbeat CPU  3 instructions:  103000002 cycles:  327233844 heartbeat IPC: 0.15264 cumulative IPC: 0.14989 (Simulation time: 0 hr 13 min 14 sec) 
Heartbeat CPU  2 instructions:   93000001 cycles:  332010606 heartbeat IPC: 0.17387 cumulative IPC: 0.13790 (Simulation time: 0 hr 13 min 21 sec) 
Heartbeat CPU  0 instructions:   99000000 cycles:  333290358 heartbeat IPC: 0.13428 cumulative IPC: 0.15346 (Simulation time: 0 hr 13 min 23 sec) 
Heartbeat CPU  3 instructions:  104000000 cycles:  333817546 heartbeat IPC: 0.15189 cumulative IPC: 0.14993 (Simulation time: 0 hr 13 min 24 sec) 
Heartbeat CPU  1 instructions:   89000001 cycles:  335168274 heartbeat IPC: 0.11731 cumulative IPC: 0.12474 (Simulation time: 0 hr 13 min 26 sec) 
*** Reached end of trace for Core: 0 Repeating trace: /data3/CLOUD9/traces/cloud9_phase3_core0.trace.xz
Heartbeat CPU  0 instructions:  100000000 cycles:  336831162 heartbeat IPC: 0.28242 cumulative IPC: 0.15492 (Simulation time: 0 hr 13 min 29 sec) 
Heartbeat CPU  2 instructions:   94000000 cycles:  337591720 heartbeat IPC: 0.17918 cumulative IPC: 0.13863 (Simulation time: 0 hr 13 min 30 sec) 
Heartbeat CPU  3 instructions:  105000001 cycles:  340382523 heartbeat IPC: 0.15232 cumulative IPC: 0.14998 (Simulation time: 0 hr 13 min 34 sec) 
Heartbeat CPU  2 instructions:   95000002 cycles:  343275553 heartbeat IPC: 0.17594 cumulative IPC: 0.13929 (Simulation time: 0 hr 13 min 39 sec) 
Heartbeat CPU  1 instructions:   90000002 cycles:  343505262 heartbeat IPC: 0.11995 cumulative IPC: 0.12461 (Simulation time: 0 hr 13 min 39 sec) 
Heartbeat CPU  0 instructions:  101000003 cycles:  343980323 heartbeat IPC: 0.13988 cumulative IPC: 0.15458 (Simulation time: 0 hr 13 min 40 sec) 
Heartbeat CPU  3 instructions:  106000000 cycles:  346935556 heartbeat IPC: 0.15260 cumulative IPC: 0.15003 (Simulation time: 0 hr 13 min 44 sec) 
Heartbeat CPU  2 instructions:   96000000 cycles:  349234700 heartbeat IPC: 0.16781 cumulative IPC: 0.13981 (Simulation time: 0 hr 13 min 47 sec) 
Heartbeat CPU  0 instructions:  102000003 cycles:  351530193 heartbeat IPC: 0.13245 cumulative IPC: 0.15407 (Simulation time: 0 hr 13 min 51 sec) 
Heartbeat CPU  1 instructions:   91000003 cycles:  351905557 heartbeat IPC: 0.11904 cumulative IPC: 0.12447 (Simulation time: 0 hr 13 min 52 sec) 
Heartbeat CPU  3 instructions:  107000000 cycles:  353484817 heartbeat IPC: 0.15269 cumulative IPC: 0.15009 (Simulation time: 0 hr 13 min 54 sec) 
Heartbeat CPU  2 instructions:   97000002 cycles:  355109012 heartbeat IPC: 0.17023 cumulative IPC: 0.14035 (Simulation time: 0 hr 13 min 56 sec) 
Heartbeat CPU  1 instructions:   92000000 cycles:  358212564 heartbeat IPC: 0.15855 cumulative IPC: 0.12511 (Simulation time: 0 hr 14 min 2 sec) 
Heartbeat CPU  0 instructions:  103000002 cycles:  358842530 heartbeat IPC: 0.13676 cumulative IPC: 0.15370 (Simulation time: 0 hr 14 min 3 sec) 
Heartbeat CPU  3 instructions:  108000000 cycles:  360052555 heartbeat IPC: 0.15226 cumulative IPC: 0.15013 (Simulation time: 0 hr 14 min 5 sec) 
Heartbeat CPU  2 instructions:   98000000 cycles:  361449303 heartbeat IPC: 0.15772 cumulative IPC: 0.14067 (Simulation time: 0 hr 14 min 7 sec) 
Heartbeat CPU  1 instructions:   93000002 cycles:  362708078 heartbeat IPC: 0.22244 cumulative IPC: 0.12640 (Simulation time: 0 hr 14 min 9 sec) 
Heartbeat CPU  0 instructions:  104000000 cycles:  365474707 heartbeat IPC: 0.15078 cumulative IPC: 0.15364 (Simulation time: 0 hr 14 min 14 sec) 
Heartbeat CPU  3 instructions:  109000002 cycles:  366651177 heartbeat IPC: 0.15155 cumulative IPC: 0.15016 (Simulation time: 0 hr 14 min 16 sec) 
Heartbeat CPU  2 instructions:   99000001 cycles:  367597806 heartbeat IPC: 0.16264 cumulative IPC: 0.14107 (Simulation time: 0 hr 14 min 17 sec) 
Heartbeat CPU  1 instructions:   94000003 cycles:  369726328 heartbeat IPC: 0.14249 cumulative IPC: 0.12672 (Simulation time: 0 hr 14 min 20 sec) 
Heartbeat CPU  0 instructions:  105000001 cycles:  371518155 heartbeat IPC: 0.16547 cumulative IPC: 0.15384 (Simulation time: 0 hr 14 min 23 sec) 
Heartbeat CPU  3 instructions:  110000003 cycles:  373231004 heartbeat IPC: 0.15198 cumulative IPC: 0.15019 (Simulation time: 0 hr 14 min 25 sec) 
*** Reached end of trace for Core: 2 Repeating trace: /data3/CLOUD9/traces/cloud9_phase3_core2.trace.xz
Heartbeat CPU  2 instructions:  100000000 cycles:  373598145 heartbeat IPC: 0.16666 cumulative IPC: 0.14150 (Simulation time: 0 hr 14 min 26 sec) 
Heartbeat CPU  1 instructions:   95000001 cycles:  377973135 heartbeat IPC: 0.12126 cumulative IPC: 0.12660 (Simulation time: 0 hr 14 min 33 sec) 
Heartbeat CPU  0 instructions:  106000002 cycles:  378419554 heartbeat IPC: 0.14490 cumulative IPC: 0.15367 (Simulation time: 0 hr 14 min 34 sec) 
Heartbeat CPU  2 instructions:  101000001 cycles:  378957802 heartbeat IPC: 0.18658 cumulative IPC: 0.14218 (Simulation time: 0 hr 14 min 35 sec) 
Heartbeat CPU  3 instructions:  111000000 cycles:  379789432 heartbeat IPC: 0.15248 cumulative IPC: 0.15023 (Simulation time: 0 hr 14 min 36 sec) 
Heartbeat CPU  0 instructions:  107000003 cycles:  385260639 heartbeat IPC: 0.14618 cumulative IPC: 0.15353 (Simulation time: 0 hr 14 min 44 sec) 
Heartbeat CPU  1 instructions:   96000000 cycles:  386278879 heartbeat IPC: 0.12040 cumulative IPC: 0.12645 (Simulation time: 0 hr 14 min 45 sec) 
Heartbeat CPU  3 instructions:  112000000 cycles:  386380136 heartbeat IPC: 0.15173 cumulative IPC: 0.15026 (Simulation time: 0 hr 14 min 46 sec) 
Heartbeat CPU  2 instructions:  102000002 cycles:  386915108 heartbeat IPC: 0.12567 cumulative IPC: 0.14182 (Simulation time: 0 hr 14 min 46 sec) 
Heartbeat CPU  0 instructions:  108000000 cycles:  392080569 heartbeat IPC: 0.14663 cumulative IPC: 0.15340 (Simulation time: 0 hr 14 min 54 sec) 
Heartbeat CPU  3 instructions:  113000001 cycles:  392958608 heartbeat IPC: 0.15201 cumulative IPC: 0.15029 (Simulation time: 0 hr 14 min 55 sec) 
Heartbeat CPU  1 instructions:   97000001 cycles:  394619259 heartbeat IPC: 0.11990 cumulative IPC: 0.12631 (Simulation time: 0 hr 14 min 57 sec) 
Heartbeat CPU  2 instructions:  103000002 cycles:  395178372 heartbeat IPC: 0.12102 cumulative IPC: 0.14136 (Simulation time: 0 hr 14 min 58 sec) 
Heartbeat CPU  0 instructions:  109000003 cycles:  398725578 heartbeat IPC: 0.15049 cumulative IPC: 0.15335 (Simulation time: 0 hr 15 min 3 sec) 
Heartbeat CPU  3 instructions:  114000001 cycles:  399524741 heartbeat IPC: 0.15230 cumulative IPC: 0.15032 (Simulation time: 0 hr 15 min 4 sec) 
Heartbeat CPU  1 instructions:   98000001 cycles:  403039254 heartbeat IPC: 0.11876 cumulative IPC: 0.12614 (Simulation time: 0 hr 15 min 9 sec) 
Heartbeat CPU  2 instructions:  104000000 cycles:  403451866 heartbeat IPC: 0.12087 cumulative IPC: 0.14091 (Simulation time: 0 hr 15 min 10 sec) 
Heartbeat CPU  0 instructions:  110000000 cycles:  404774715 heartbeat IPC: 0.16531 cumulative IPC: 0.15354 (Simulation time: 0 hr 15 min 12 sec) 
Heartbeat CPU  3 instructions:  115000003 cycles:  406084216 heartbeat IPC: 0.15245 cumulative IPC: 0.15036 (Simulation time: 0 hr 15 min 14 sec) 
Heartbeat CPU  1 instructions:   99000000 cycles:  411415247 heartbeat IPC: 0.11939 cumulative IPC: 0.12599 (Simulation time: 0 hr 15 min 22 sec) 
Heartbeat CPU  0 instructions:  111000000 cycles:  411440120 heartbeat IPC: 0.15003 cumulative IPC: 0.15348 (Simulation time: 0 hr 15 min 22 sec) 
Heartbeat CPU  2 instructions:  105000003 cycles:  411840944 heartbeat IPC: 0.11920 cumulative IPC: 0.14045 (Simulation time: 0 hr 15 min 22 sec) 
Heartbeat CPU  3 instructions:  116000000 cycles:  412647644 heartbeat IPC: 0.15236 cumulative IPC: 0.15039 (Simulation time: 0 hr 15 min 23 sec) 
Heartbeat CPU  0 instructions:  112000000 cycles:  418710250 heartbeat IPC: 0.13755 cumulative IPC: 0.15319 (Simulation time: 0 hr 15 min 32 sec) 
Heartbeat CPU  3 instructions:  117000001 cycles:  419253653 heartbeat IPC: 0.15138 cumulative IPC: 0.15041 (Simulation time: 0 hr 15 min 33 sec) 
*** Reached end of trace for Core: 1 Repeating trace: /data3/CLOUD9/traces/cloud9_phase3_core1.trace.xz
Heartbeat CPU  1 instructions:  100000000 cycles:  419804653 heartbeat IPC: 0.11920 cumulative IPC: 0.12585 (Simulation time: 0 hr 15 min 33 sec) 
Heartbeat CPU  2 instructions:  106000002 cycles:  420231599 heartbeat IPC: 0.11918 cumulative IPC: 0.14000 (Simulation time: 0 hr 15 min 34 sec) 
Heartbeat CPU  0 instructions:  113000000 cycles:  425146309 heartbeat IPC: 0.15537 cumulative IPC: 0.15322 (Simulation time: 0 hr 15 min 41 sec) 
Heartbeat CPU  3 instructions:  118000002 cycles:  425840653 heartbeat IPC: 0.15181 cumulative IPC: 0.15043 (Simulation time: 0 hr 15 min 42 sec) 
Heartbeat CPU  1 instructions:  101000000 cycles:  428195356 heartbeat IPC: 0.11918 cumulative IPC: 0.12571 (Simulation time: 0 hr 15 min 45 sec) 
Heartbeat CPU  2 instructions:  107000003 cycles:  428588686 heartbeat IPC: 0.11966 cumulative IPC: 0.13958 (Simulation time: 0 hr 15 min 46 sec) 
Heartbeat CPU  0 instructions:  114000001 cycles:  431608125 heartbeat IPC: 0.15476 cumulative IPC: 0.15325 (Simulation time: 0 hr 15 min 50 sec) 
Heartbeat CPU  3 instructions:  119000001 cycles:  432418336 heartbeat IPC: 0.15203 cumulative IPC: 0.15046 (Simulation time: 0 hr 15 min 51 sec) 
Heartbeat CPU  1 instructions:  102000001 cycles:  436708033 heartbeat IPC: 0.11747 cumulative IPC: 0.12554 (Simulation time: 0 hr 15 min 57 sec) 
Heartbeat CPU  2 instructions:  108000000 cycles:  436916518 heartbeat IPC: 0.12008 cumulative IPC: 0.13919 (Simulation time: 0 hr 15 min 58 sec) 
Heartbeat CPU  0 instructions:  115000001 cycles:  438056705 heartbeat IPC: 0.15507 cumulative IPC: 0.15328 (Simulation time: 0 hr 15 min 59 sec) 
Heartbeat CPU  3 instructions:  120000000 cycles:  439030445 heartbeat IPC: 0.15124 cumulative IPC: 0.15047 (Simulation time: 0 hr 16 min 1 sec) 
Heartbeat CPU  0 instructions:  116000000 cycles:  444631176 heartbeat IPC: 0.15210 cumulative IPC: 0.15326 (Simulation time: 0 hr 16 min 9 sec) 
Heartbeat CPU  1 instructions:  103000001 cycles:  445131574 heartbeat IPC: 0.11871 cumulative IPC: 0.12541 (Simulation time: 0 hr 16 min 9 sec) 
Heartbeat CPU  2 instructions:  109000000 cycles:  445244556 heartbeat IPC: 0.12008 cumulative IPC: 0.13881 (Simulation time: 0 hr 16 min 9 sec) 
Heartbeat CPU  3 instructions:  121000002 cycles:  445670083 heartbeat IPC: 0.15061 cumulative IPC: 0.15047 (Simulation time: 0 hr 16 min 10 sec) 
Heartbeat CPU  1 instructions:  104000000 cycles:  449842750 heartbeat IPC: 0.21226 cumulative IPC: 0.12636 (Simulation time: 0 hr 16 min 17 sec) 
Heartbeat CPU  0 instructions:  117000000 cycles:  450355656 heartbeat IPC: 0.17469 cumulative IPC: 0.15354 (Simulation time: 0 hr 16 min 18 sec) 
Heartbeat CPU  3 instructions:  122000001 cycles:  452299493 heartbeat IPC: 0.15084 cumulative IPC: 0.15048 (Simulation time: 0 hr 16 min 22 sec) 
Heartbeat CPU  2 instructions:  110000001 cycles:  453628259 heartbeat IPC: 0.11928 cumulative IPC: 0.13843 (Simulation time: 0 hr 16 min 24 sec) 
Heartbeat CPU  0 instructions:  118000001 cycles:  453731980 heartbeat IPC: 0.29618 cumulative IPC: 0.15466 (Simulation time: 0 hr 16 min 24 sec) 
Heartbeat CPU  1 instructions:  105000003 cycles:  455176121 heartbeat IPC: 0.18750 cumulative IPC: 0.12712 (Simulation time: 0 hr 16 min 27 sec) 
Heartbeat CPU  0 instructions:  119000000 cycles:  458158798 heartbeat IPC: 0.22590 cumulative IPC: 0.15538 (Simulation time: 0 hr 16 min 32 sec) 
Heartbeat CPU  3 instructions:  123000003 cycles:  458922482 heartbeat IPC: 0.15099 cumulative IPC: 0.15049 (Simulation time: 0 hr 16 min 33 sec) 
Heartbeat CPU  0 instructions:  120000000 cycles:  460433697 heartbeat IPC: 0.43958 cumulative IPC: 0.15686 (Simulation time: 0 hr 16 min 36 sec) 
Heartbeat CPU  2 instructions:  111000003 cycles:  462303137 heartbeat IPC: 0.11528 cumulative IPC: 0.13797 (Simulation time: 0 hr 16 min 39 sec) 
Heartbeat CPU  1 instructions:  106000001 cycles:  463271899 heartbeat IPC: 0.12352 cumulative IPC: 0.12705 (Simulation time: 0 hr 16 min 40 sec) 
Heartbeat CPU  3 instructions:  124000000 cycles:  465519728 heartbeat IPC: 0.15158 cumulative IPC: 0.15050 (Simulation time: 0 hr 16 min 44 sec) 
Heartbeat CPU  0 instructions:  121000000 cycles:  466615182 heartbeat IPC: 0.16177 cumulative IPC: 0.15693 (Simulation time: 0 hr 16 min 45 sec) 
Heartbeat CPU  2 instructions:  112000000 cycles:  470666675 heartbeat IPC: 0.11957 cumulative IPC: 0.13763 (Simulation time: 0 hr 16 min 51 sec) 
Heartbeat CPU  1 instructions:  107000000 cycles:  471563741 heartbeat IPC: 0.12060 cumulative IPC: 0.12693 (Simulation time: 0 hr 16 min 53 sec) 
Heartbeat CPU  3 instructions:  125000003 cycles:  471998333 heartbeat IPC: 0.15435 cumulative IPC: 0.15056 (Simulation time: 0 hr 16 min 53 sec) 
Heartbeat CPU  0 instructions:  122000000 cycles:  472462970 heartbeat IPC: 0.17100 cumulative IPC: 0.15711 (Simulation time: 0 hr 16 min 54 sec) 
Heartbeat CPU  3 instructions:  126000003 cycles:  478436851 heartbeat IPC: 0.15532 cumulative IPC: 0.15063 (Simulation time: 0 hr 17 min 3 sec) 
Heartbeat CPU  2 instructions:  113000001 cycles:  479090450 heartbeat IPC: 0.11871 cumulative IPC: 0.13728 (Simulation time: 0 hr 17 min 4 sec) 
Heartbeat CPU  1 instructions:  108000000 cycles:  479886864 heartbeat IPC: 0.12015 cumulative IPC: 0.12681 (Simulation time: 0 hr 17 min 5 sec) 
Heartbeat CPU  0 instructions:  123000001 cycles:  480125904 heartbeat IPC: 0.13050 cumulative IPC: 0.15667 (Simulation time: 0 hr 17 min 5 sec) 
Heartbeat CPU  3 instructions:  127000001 cycles:  484876482 heartbeat IPC: 0.15529 cumulative IPC: 0.15069 (Simulation time: 0 hr 17 min 11 sec) 
Heartbeat CPU  2 instructions:  114000002 cycles:  486606288 heartbeat IPC: 0.13305 cumulative IPC: 0.13721 (Simulation time: 0 hr 17 min 14 sec) 
Heartbeat CPU  1 instructions:  109000002 cycles:  488286150 heartbeat IPC: 0.11906 cumulative IPC: 0.12667 (Simulation time: 0 hr 17 min 17 sec) 
Heartbeat CPU  0 instructions:  124000000 cycles:  488919811 heartbeat IPC: 0.11371 cumulative IPC: 0.15586 (Simulation time: 0 hr 17 min 18 sec) 
Heartbeat CPU  3 instructions:  128000000 cycles:  491322741 heartbeat IPC: 0.15513 cumulative IPC: 0.15075 (Simulation time: 0 hr 17 min 22 sec) 
Heartbeat CPU  2 instructions:  115000003 cycles:  491490783 heartbeat IPC: 0.20473 cumulative IPC: 0.13792 (Simulation time: 0 hr 17 min 22 sec) 
Heartbeat CPU  1 instructions:  110000000 cycles:  496723824 heartbeat IPC: 0.11852 cumulative IPC: 0.12652 (Simulation time: 0 hr 17 min 29 sec) 
Heartbeat CPU  0 instructions:  125000000 cycles:  497304141 heartbeat IPC: 0.11927 cumulative IPC: 0.15521 (Simulation time: 0 hr 17 min 30 sec) 
Heartbeat CPU  2 instructions:  116000000 cycles:  497592159 heartbeat IPC: 0.16390 cumulative IPC: 0.13825 (Simulation time: 0 hr 17 min 31 sec) 
Heartbeat CPU  3 instructions:  129000000 cycles:  497795077 heartbeat IPC: 0.15450 cumulative IPC: 0.15080 (Simulation time: 0 hr 17 min 31 sec) 
Heartbeat CPU  3 instructions:  130000000 cycles:  504279892 heartbeat IPC: 0.15421 cumulative IPC: 0.15085 (Simulation time: 0 hr 17 min 40 sec) 
Heartbeat CPU  1 instructions:  111000000 cycles:  505089285 heartbeat IPC: 0.11954 cumulative IPC: 0.12640 (Simulation time: 0 hr 17 min 41 sec) 
Heartbeat CPU  0 instructions:  126000001 cycles:  505664227 heartbeat IPC: 0.11962 cumulative IPC: 0.15459 (Simulation time: 0 hr 17 min 42 sec) 
Heartbeat CPU  2 instructions:  117000000 cycles:  505851671 heartbeat IPC: 0.12107 cumulative IPC: 0.13796 (Simulation time: 0 hr 17 min 42 sec) 
Heartbeat CPU  3 instructions:  131000001 cycles:  510750948 heartbeat IPC: 0.15453 cumulative IPC: 0.15090 (Simulation time: 0 hr 17 min 49 sec) 
Heartbeat CPU  1 instructions:  112000000 cycles:  513460943 heartbeat IPC: 0.11945 cumulative IPC: 0.12629 (Simulation time: 0 hr 17 min 52 sec) 
Heartbeat CPU  2 instructions:  118000001 cycles:  514145916 heartbeat IPC: 0.12057 cumulative IPC: 0.13766 (Simulation time: 0 hr 17 min 53 sec) 
Heartbeat CPU  0 instructions:  127000000 cycles:  514171843 heartbeat IPC: 0.11754 cumulative IPC: 0.15395 (Simulation time: 0 hr 17 min 53 sec) 
Heartbeat CPU  3 instructions:  132000000 cycles:  517174987 heartbeat IPC: 0.15567 cumulative IPC: 0.15096 (Simulation time: 0 hr 17 min 57 sec) 
Heartbeat CPU  0 instructions:  128000000 cycles:  519515098 heartbeat IPC: 0.18715 cumulative IPC: 0.15431 (Simulation time: 0 hr 18 min 1 sec) 
Heartbeat CPU  1 instructions:  113000003 cycles:  521948745 heartbeat IPC: 0.11782 cumulative IPC: 0.12614 (Simulation time: 0 hr 18 min 5 sec) 
Heartbeat CPU  2 instructions:  119000002 cycles:  522440890 heartbeat IPC: 0.12056 cumulative IPC: 0.13738 (Simulation time: 0 hr 18 min 6 sec) 
Heartbeat CPU  3 instructions:  133000000 cycles:  523634433 heartbeat IPC: 0.15481 cumulative IPC: 0.15101 (Simulation time: 0 hr 18 min 8 sec) 
Heartbeat CPU  0 instructions:  129000001 cycles:  524237290 heartbeat IPC: 0.21177 cumulative IPC: 0.15485 (Simulation time: 0 hr 18 min 9 sec) 
Heartbeat CPU  0 instructions:  130000002 cycles:  528985711 heartbeat IPC: 0.21060 cumulative IPC: 0.15537 (Simulation time: 0 hr 18 min 16 sec) 
Heartbeat CPU  3 instructions:  134000002 cycles:  530064482 heartbeat IPC: 0.15552 cumulative IPC: 0.15107 (Simulation time: 0 hr 18 min 18 sec) 
Heartbeat CPU  1 instructions:  114000002 cycles:  530382881 heartbeat IPC: 0.11857 cumulative IPC: 0.12602 (Simulation time: 0 hr 18 min 18 sec) 
Heartbeat CPU  2 instructions:  120000000 cycles:  530803071 heartbeat IPC: 0.11959 cumulative IPC: 0.13709 (Simulation time: 0 hr 18 min 19 sec) 
Heartbeat CPU  0 instructions:  131000003 cycles:  533618647 heartbeat IPC: 0.21585 cumulative IPC: 0.15592 (Simulation time: 0 hr 18 min 23 sec) 
Heartbeat CPU  3 instructions:  135000002 cycles:  536558278 heartbeat IPC: 0.15399 cumulative IPC: 0.15110 (Simulation time: 0 hr 18 min 28 sec) 
Heartbeat CPU  0 instructions:  132000000 cycles:  538012551 heartbeat IPC: 0.22759 cumulative IPC: 0.15653 (Simulation time: 0 hr 18 min 31 sec) 
Heartbeat CPU  1 instructions:  115000001 cycles:  539090308 heartbeat IPC: 0.11484 cumulative IPC: 0.12583 (Simulation time: 0 hr 18 min 32 sec) 
Heartbeat CPU  2 instructions:  121000001 cycles:  539165769 heartbeat IPC: 0.11958 cumulative IPC: 0.13680 (Simulation time: 0 hr 18 min 32 sec) 
Heartbeat CPU  0 instructions:  133000002 cycles:  542638066 heartbeat IPC: 0.21619 cumulative IPC: 0.15706 (Simulation time: 0 hr 18 min 38 sec) 
Heartbeat CPU  3 instructions:  136000000 cycles:  543002232 heartbeat IPC: 0.15518 cumulative IPC: 0.15115 (Simulation time: 0 hr 18 min 38 sec) 
Heartbeat CPU  0 instructions:  134000000 cycles:  547420539 heartbeat IPC: 0.20910 cumulative IPC: 0.15754 (Simulation time: 0 hr 18 min 45 sec) 
Heartbeat CPU  2 instructions:  122000003 cycles:  547533013 heartbeat IPC: 0.11951 cumulative IPC: 0.13653 (Simulation time: 0 hr 18 min 45 sec) 
Heartbeat CPU  1 instructions:  116000000 cycles:  547540709 heartbeat IPC: 0.11834 cumulative IPC: 0.12571 (Simulation time: 0 hr 18 min 45 sec) 
Heartbeat CPU  3 instructions:  137000000 cycles:  549452807 heartbeat IPC: 0.15502 cumulative IPC: 0.15120 (Simulation time: 0 hr 18 min 48 sec) 
Heartbeat CPU  0 instructions:  135000000 cycles:  552494510 heartbeat IPC: 0.19708 cumulative IPC: 0.15792 (Simulation time: 0 hr 18 min 53 sec) 
Heartbeat CPU  2 instructions:  123000002 cycles:  555842645 heartbeat IPC: 0.12034 cumulative IPC: 0.13628 (Simulation time: 0 hr 18 min 58 sec) 
Heartbeat CPU  3 instructions:  138000003 cycles:  555927413 heartbeat IPC: 0.15445 cumulative IPC: 0.15124 (Simulation time: 0 hr 18 min 58 sec) 
Heartbeat CPU  1 instructions:  117000000 cycles:  556047838 heartbeat IPC: 0.11755 cumulative IPC: 0.12558 (Simulation time: 0 hr 18 min 58 sec) 
Heartbeat CPU  0 instructions:  136000000 cycles:  558691639 heartbeat IPC: 0.16137 cumulative IPC: 0.15796 (Simulation time: 0 hr 19 min 2 sec) 
Heartbeat CPU  3 instructions:  139000001 cycles:  562406715 heartbeat IPC: 0.15434 cumulative IPC: 0.15128 (Simulation time: 0 hr 19 min 8 sec) 
Heartbeat CPU  1 instructions:  118000000 cycles:  563621689 heartbeat IPC: 0.13203 cumulative IPC: 0.12567 (Simulation time: 0 hr 19 min 10 sec) 
Heartbeat CPU  2 instructions:  124000000 cycles:  564223906 heartbeat IPC: 0.11931 cumulative IPC: 0.13601 (Simulation time: 0 hr 19 min 11 sec) 
Heartbeat CPU  0 instructions:  137000001 cycles:  564243981 heartbeat IPC: 0.18010 cumulative IPC: 0.15818 (Simulation time: 0 hr 19 min 11 sec) 
Heartbeat CPU  1 instructions:  119000002 cycles:  568528368 heartbeat IPC: 0.20380 cumulative IPC: 0.12637 (Simulation time: 0 hr 19 min 19 sec) 
Heartbeat CPU  3 instructions:  140000000 cycles:  568842359 heartbeat IPC: 0.15538 cumulative IPC: 0.15133 (Simulation time: 0 hr 19 min 19 sec) 
Heartbeat CPU  0 instructions:  138000003 cycles:  569371024 heartbeat IPC: 0.19504 cumulative IPC: 0.15853 (Simulation time: 0 hr 19 min 20 sec) 
Heartbeat CPU  2 instructions:  125000003 cycles:  572621508 heartbeat IPC: 0.11908 cumulative IPC: 0.13575 (Simulation time: 0 hr 19 min 25 sec) 
[...]
44444422222222A2AAAAAAAAAAAAIAAAAAAAAIAAAAAAAAAAAAAAAAAAAAAAAAAA
44444422222222A2AAAAAAAAIAAAIAAAAAAAAIAAAAAAAAAAAAAAAAAAAAAAAAAA
44444422222222A2AAAAAAAAIAAAIAAAAAAAAIAAAAAAAIAAAAAAAAAAAAAAAAAA
44444422222222A2AAAAAAAAIAAAIAAAAAAAAIAAAAAAAIAAAAAAAAIAAAAAAAAA
44444422222222A2AAAAAAAAIAAAIAAAAAAAAIAAAAAAAIAAAAAIAAIAAAAAAAAA
44444422222222A2AAAAAAAAIAAIIAAAAAAAAIAAAAAAAIAAAAAIAAIAAAAAAAAA
44444422222222A2AAAAAAAAIAAIIAAAIAAAAIAAAAAAAIAAAAAIAAIAAAAAAAAA
44444422222222A2AAAAAAAAIAAIIAAAIAAAIIAAAAAAAIAAAAAIAAIAAAAAAAAA
44444422222222A2AAAAAAAIIAAIIAAAIAAAIIAAAAAAAIAAAAAIAAIAAAAAAAAA
44444422222222A2AAAAAAAIIAAIIAAAIAAAIIAAAAAAAIAAIAAIAAIAAAAAAAAA
44444422222222A2AAAAAAA42AA2IAAAIAAAIIAAAAAAAIAAIAAIAAIAAAAAAAAA
44444422222222A2AAAAAAA42AA24AAA4AAA44AAAAAAAAAAIAAIAAIAAAAAAAAA
44444422222222A2AAAAAAAA2AA24AAA4AAA44AAAAAAAAAAIAAIAAIAAAAAAAAA
44444422222222A2AAAAAAAAAAA24AAA4AAA44AAAAAAAAAAIAAIAAIAAAAAAAAA
44444422222222A2AAAAAAAAAAA24AAA4AAA44AAAAAAAAAA4AA4AA2AAAAAAAAA
44444422222222A2AAAAAAAAAAA22AAAAAAA44AAAAAAAAAA4AA4AA2AAAAAAAAA
44444422222222A2AAAAAAAAAAA2AAAAAAAA44AAAAAAAAAA4AA4AA2AAAAAAAAA
44444422222222A2AAAAAAAAAAA2AAAAAAAA44AAAAAAAAAA4AAAAA2AAAAAAAAA
44444422222222A2AAAAAAAAAAAAAAAAAAAA44AAAAAAAAAA4AAAAA2AAAAAAAAA
44444422222222A2AAAAAAAAAAAAAAAAAAAA44AAAAAAAAAA2AAAAA2AAAAAAAAA
44444422222222A2AAAAAAAAAAAAAAAAAAAAA4AAAAAAAAAA2AAAAA2AAAAAAAAA
44444422222222A2AAIAAAAAAAAAAAAAAAAAA4AAAAAAAAAA2AAAAA2AAAAAAAAA
44444422222222A2AA2AAAAAAAAAAAAAAAAAA4AAAAAAAAAA2AAAAA2AAAAAAAAA
44444422222222A2AA2AAAAAAAAAAAAAAAAAA2AAAAAAAAAA2AAAAA2AAAAAAAAA
44444422222222A2AA2AAAAAAAAAAAIAAAAAA2AAAAAAAAAA2AAAAA2AAAAAAAAA
44444422222222A2AI2AAAAAAAAAAAIAAAAAA2AAAAAAAAAA2AAAAA2AAAAAAAAA
44444422222222A2AIIAAAAAAAAAAAIAAAAAA2AAAAAAAAAA2AAAAA2AAAAAAAAA
44444422222222A2AIIAAAAAAAAAAAIAAAAAA2AAAAAAAIAA2AAAAA2AAAAAAAAA
44444422222222A2AIIAAAAAAAAAAAIAAIAAA2AAAAAAAIAA2AAAAA2AAAAAAAAA
44444422222222A2AIIIAAAAAAAAAAIAAIAAA2AAAAAAAIAA2AAAAA2AAAAAAAAA
44444422222222A2AIIIAAAAAAAAAAIAAIAAA2AAAAAAAIAA2AAAAA2AAAAIAAAA
44444422222222A2AIIIAAAAAAAAAAIAAIAAA2AAAAAAAIAA2AAAAA2AIAAIAAAA
44444422222222A2AIIIAAAAAAAAAAIAAIAAA2AAAAAAAIAA2AAAAI2AIAAIAAAA
44444422222222A2AIIIAAAAAAAAAAIAAIAAA2AAAAAAAIAA2AAAAI2IIAAIAAAA
44444422222222A2AIIIAAAAAAAAAAIAAIAAA2AAAAIAAIAA2AAAAI2IIAAIAAAA
44444422222222A2AIIIAAAAAAAAAA4AA4AAA2AAAAIAA2AAAAAAAI2IIAAIAAAA
44444422222222A2A2I2AAAAAAAAAA4AA4AAA2AAAAIAA2AAAAAAAI2IIAAIAAAA
44444422222222A2A2I2AAAAAAAAAA4AA4AAA2AAAA4AA2AAAAAAAI22IAAIAAAA
44444422222222A2A222AAAAAAAAAA4AA4AAA2AAAA4AA2AAAAAAAI22IAAIAAAA
44444422222222A2A2A2AAAAAAAAAA4AA4AAA2AAAA4AA2AAAAAAAI22IAAIAAAA
44444422222222A2A2A2AAAAAAAAAA4AA4AAA2AAAA2AA2AAAAAAAI22IAAIAAAA
44444422222222A2A2A2AAAAAAAAAA4AA4AAA2AAAA2AA2AAAAAAA422IAA2AAAA
44444422222222A2A2A2AAAAAAAAAA4AA4AAA2AAAA2AA2AAAAAAAA22IAA2AAAA
44444422222222A2A2A2AAAAAAAAAA4AA4AAA2AAAA2AA2AAAAAAAA222AAAAAAA
44444422222222A2A2A2AAAAAAAAAA4AA4AAA2AAAAAAA2AAAAAAAA222AAAAAAA
44444422222222A2A2AAAAAAAAAAAA4AA4AAA2AAAAAAA2AAAAAAAA222AAAAAAA
44444422222222A2A2AAAAAAAAAAAA2AA2AAA2AAAAAAA2AAAAAAAA222AAAAAAA
44444422222222A2A2AAAAAAAAAAAAAAA2AAA2AAAAAAA2AAAAAAAA222AAAAAAA
44444422222222A2A2AAAAAAAAAAAAAAA2AAA2AAAAAAA2AAAAAAAA2I2AAAAAAA
44444422222222A2A2AAAAAAAAAAAAAAA2AAA2AAAAAAA2AAAAAAAA242AAAAAAA
44444422222222A2A2AAAAAAAAAAAAAAA2AAA2AAAAAAA2AAAAAAAA2A2AAAAAAA
44444422222222A2AAAAAAAAAAAAAAAAA2AAA2AAAAAAA2AAAAAAAA2A2AAAAAAA
44444422222222A2AAAAAAAAAAAAAAAAAAAAA2AAAAAAA2AAAAAAAA2A2AAAAAAA
44444422222222A2AAAAAAAAAAAAAAAAAAAAA2AAAAAAA2AAAAAAAA2AAAAAAAAA
44444422222222A2AAAAAAAAAAAAAAAAAAAAA2AAAAAAA2AAAAAAAAAAAAAAAAAA
44444422222222A2AAAAAAAAAAAAAAAAAAAAAAAAAAAAA2AAAAAAAAAAAAAAAAAA
44444422222222A2AAAAAAAAAAAAAAAAAAAAAAAAAAAAAAAAAAAAAAAAAAAAAAAA
44444422222222AAAAAAAAAAAAAAAAAAAAAAAAAAAAAAAAAAAAAAAAAAAAAAAAAA
44444422222222AIAAAAAAAAAAAAAAAAAAAAAAAAAAAAAAAAAAAAAAAAAAAAAAAA
44444422222222AAAAAAAAAAAAAAAAAAAAAAAAAAAAAAAAAAAAAAAAAAAAAAAAAA
44444422222222AAAAAAAAAAAAAAAAAAAAAAAAAAAAAAAAAAAAAIAAAAAAAAAAAA
44444422222222AAAAAAAAAAAAAAAAAAAAAAAAAAAAAAAAAAAAA4AAAAAAAAAAAA
44444422222222AAAAAAAAAAAAAAAAAAAAAAAAAAAAAAAAAAAAA2AAAAAAAAAAAA
44444422222222AIAAAAAAAAAAAAAAAAAAAAAAAAAAAAAAAAAAA2AAAAAAAAAAAA
44444422222222AIAAAAAAAAAAAAAAAAAAAAAAAAAAAAAAAAAAA2AAAAAIAAAAAA
44444422222222AIAAAAAAAAAAAAAAAAAAAAAAAAAAAAAAAAAAA2AAAAA4AAAAAA
44444422222222A2AAAAAAAAAAAAAAAAAAAAAAAAAAAAAAAAAAA2AAAAA4AAAAAA
44444422222222A2AAAAAAAAAAAAAAAAAAAAAAAAAAAAAAAAAAA2AAAAA2AAAAAA
44444422222222AAAAAAAAAAAAAAAAAAAAAAAAAAAAAAAAAAAAA2AAAAA2AAAAAA
44444422222222AAAAIAAAAAAAAAAAAAAAAAAAAAAAAAAAAAAAA2AAAAA2AAAAAA
44444422222222AAAA2AAAAAAAAAAAAAAAAAAAAAAAAAAAAAAAA2AAAAA2AAAAAA
44444422222222AAAI2AAAAAAAAAAAAAAAAAAAAAAAAAAAAAAAA2AAAAA2AAAAAA
44444422222222AAAIIAAAAAAAAAAAAAAAAAAAAAAAAAAAAAAAA2AAAAA2AAAAAA
44444422222222AAAI4AAAAAAAAAAAAAAAAAAAAAAAAAAAAAAAA2AAAAA2AAAAAA
44444422222222AAA44AAAAAAAAAAAAAAAAAAAAAAAAAAAAAAAA2AAAAA2AAAAAA
44444422222222AIA44AAAAAAAAAAAAAAAAAAAAAAAAAAAAAAAA2AAAAA2AAAAAA
44444422222222AAA44AAAAAAAAAAAAAAAAAAAAAAAAAAAAAAAA2AAAAA2AAAAAA
44444422222222AAA22AAAAAAAAAAAAAAAAAAAAAAAAAAAAAAAA2AAAAA2AAAAAA
44444422222222AAAA2AAAAAAAAAAAAAAAAAAAAAAAAAAAAAAAA2AAAAA2AAAAAA
44444422222222AAAA2AAAAAAAAAAAAAAAAAAAAAAAAAAAAAAAA2AAAAAAAAAAAA
44444422222222AAAAAAAAAAAAAAAAAAAAAAAAAAAAAAAAAAAAA2AAAAAAAAAAAA
44444422222222AAAAAAAAAAAAAAAAAAAAAAAAAAAAAAAAAAAAAAAAAAAAAAAAAA
44444222222222AAAAAAAAAAAAAAAAAAAAAAAAAAAAAAAAAAAAAAAAAAAAAAAAAA
44444222222222AIAAAAAAAAAAAAAAAAAAAAAAAAAAAAAAAAAAAAAAAAAAAAAAAA
44444222222222AIAAAAAAAAAAAAAAAAAAAAAAAAAAAAAAAAAAAAAIAAAAAAAAAA
44444222222222AIAAAAAAAAAAAAAAAAAAAAAAAAAAAAAAAIAAAAAIAAAAAAAAAA
44444222222222AIAAAAAAAAAAAAAAAAAAAAAAAAAAAIAAAIAAAAAIAAAAAAAAAA
44444222222222AIAAAAAAAAAAAAAAAAAAAAAAIAAAAIAAAIAAAAAIAAAAAAAAAA
44444222222222AIAAAAAAAAAAAAAAAAAAAAIAIAAAAIAAAIAAAAAIAAAAAAAAAA
44444222222222AIAAAAAAAAAAAAAIAAAAAAIAIAAAAIAAAIAAAAAIAAAAAAAAAA
44444222222222AIAAAIAAAAAAAAAIAAAAAAIAIAAAAIAAAIAAAAAIAAAAAAAAAA
44444222222222AIAAAIAAAAAAAIAIAAAAAAIAIAAAAIAAAIAAAAAIAAAAAAAAAA
44444222222222AIAAAIAAAAAAAIAIAAAAAAIAIAAAAIAAAIAAAAIIAAAAAAAAAA
44444222222222AIAAAIAAAAAAAIAIAAAAAAIAIAAAAIAAAIAAAAI4AAAAAAAAAA
44444222222222AIAAA2AAAAAAAIAIAAAAAAIAIAAAAIAAAIAAAAI4AAAAAAAAAA
44444222222222A4AAA2AAAAAAA2AIAAAAAAIAIAAAAIAAAIAAAAI4AAAAAAAAAA
44444222222222A4AAA2AAAAAAA2A2AAAAAAIAIAAAAIAAAIAAAAI4AAAAAAAAAA
44444222222222A4AAA2AAAAAAA2A2AAAAAAIAIAAAAIAAA4AAAA42AAAAAAAAAA
44444222222222A4AAA2AAAAAAA2A2AAAAAAIAIAAAAIAAA4AAAA22AAAAAAAAAA
44444222222222A4AAA2AAAAAAA2A2AAAAAAIA4AAAA2AAA2AAAAA2AAAAAAAAAA
44444222222222A4AAA2AAAAAAA2A2AAAAAA2A4AAAA2AAA2AAAAA2AAAAAAAAAA
44444222222222A2AAA2AAAAAAA2A2AAAAAA2A4AAAA2AAA2AAAAA2AAAAAAAAAA
44444222222222A2AAA2AAAAAAA2A2AAAAAA2A2AAAA2AAAAAAAAA2AAAAAAAAAA
44444222222222A2AAA2AAAAAAA2A2AAAAAAAA2AAAA2AAAAAAAAA2AAAAAAAAAA
44444222222222A2AAA2AAAAAAA2A2AAAAAAAA2AAAAAAAAAAAAAA2AAAAAAAAAA
44444222222222A2AAA2AAAAAAAAA2AAAAAAAA2AAAAAAAAAAAAAA2AAAAAAAAAA
44444222222222A2AAAAAAAAAAAAA2AAAAAAAA2AAAAAAAAAAAAAA2AAAAAAAAAA
44444222222222A2AAAAAAAAAAAAA2AAAAAAAA2AAAAAAAAAAAAAAAAAAAAAAAAA
44444222222222A2AAAAAAAAAAAAAAAAAAAAAA2AAAAAAAAAAAAAAAAAAAAAAAAA
44444222222222A2AAAAAAAAAAAAAAAAAAAAAAAAAAAAAAAAAAAAAAAAAAAAAAAA
44444222222222A2AAAAAAAAAAAAAAAAAAAAAAAAAAAAAAAAAAAAAAIAAAAAAAAA
44444222222222A2AAAAAAAAAAAAAAAAAAAAAAAAAAAAAAAIAAAAAAIAAAAAAAAA
44444222222222A2AAAAAAAAAAAAAAAAAAAAAAAAAAAAAAAIAAAAAIIAAAAAAAAA
44444222222222A2AAAAAAAAAAAAAAAAIAAAAAAAAAAAAAAIAAAAAIIAAAAAAAAA
44444222222222A2AAAAAAAAAAAIAAAAIAAAAAAAAAAAAAAIAAAAAIIAAAAAAAAA
44444222222222A2AAAAAAAAAAAIAAAAIAAAAAIAAAAAAAAIAAAAAIIAAAAAAAAA
44444222222222A2AAAAAAAAAAIIAAAAIAAAAAIAAAAAAAAIAAAAAIIAAAAAAAAA
44444222222222A2IAAAAAAAAAIIAAAAIAAAAAIAAAAAAAAIAAAAAIIAAAAAAAAA
44444222222222A24AAAAAAAAAIAAAAAIAAAAAIAAAAAAAAIAAAAAIIAAAAAAAAA
44444222222222A24AAAAAAAAAIAAAAAIAAAAAIAAAAAAAA4AAAAA2IAAAAAAAAA
44444222222222A24AAAAAAAAA4AAAAAIAAAAA4AAAAAAAA4AAAAA2IAAAAAAAAA
44444222222222A24AAAAAAAAA4AAAAA4AAAAA2AAAAAAAAAAAAAA2IAAAAAAAAA
44444222222222A24AAAAAAAAA2AAAAA4AAAAA2AAAAAAAAAAAAAA2IAAAAAAAAA
44444222222222A22AAAAAAAAA2AAAAA4AAAAA2AAAAAAAAAAAAAA2IAAAAAAAAA
44444222222222A22AAAAAAAAA2AAAAA2AAAAA2AAAAAAAAAAAAAA2IAAAAAAAAA
44444222222222A22AAAAAAAAA2AAAAA2AAAAA2AAAAAAAAAAAAAA22AAAAAAAAA
44444222222222A22AAAAAAAAA2AAAAA2AAAAAAAAAAAAAAAAAAAA22AAAAAAAAA
44444222222222A22AAAAAAAAA2AAAAA2AAAAAAAIAAAAAAAAAAAA22AAAAAAAAA
44444222222222A22AAAAAAAAA2AAAAA2AAAAAAA2AAAAAAAAAAAA22AAAAAAAAA
44444222222222A22AAAAAAAAA2AAAAAAAAAAAAA2AAAAAAAAAAAA22AAAAAAAAA
44444222222222A22AAAAAAAAA2AAAAAAAAAAAAA2AAAAAAAAAAAAA2AAAAAAAAA
44444222222222A22AAAAAAAAAAAAAAAAAAAAAAA2AAAAAAAAAAAAA2AAAAAAAAA
44444222222222A22AAAAAAAAAAAAAAAAAAAAAAA2AAAAAAAAAAAAAAAAAAAAAAA
44444222222222A2AAAAAAAAAAAAAAAAAAAAAAAA2AAAAAAAAAAAAAAAAAAAAAAA
44444222222222A2AAAAAAAAAAAAAAAAAAAAAAAAAAAAAAAAAAAAAAAAAAAAAAAA
44444222222222A2AAAAAAAAAAAAAAAAAAAAAAAAAAAAAAAAAAAAAAAAAAAAAIAA
44444222222222A2AAAAAAAAAAAAAAAAAAAAAAAAAAAAAAAAAAAAAAAAAAAAA4AA
44444222222222A2AAAAAAAAAAAAAAAAAAAAAAAAAAAAAAAAAAAAAAAAAAAAA2AA
44444222222222AAAAAAAAAAAAAAAAAAAAAAAAAAAAAAAAAAAAAAAAAAAAAAA2AA
44444222222222AAAAAAAAAAAAAAAAAAAAAAAAAAAAAAAAAAAAAAAAAAAAAAAAAA
44444222222222AAAAIAAAAAAAAAAAAAAAAAAAAAAAAAAAAAAAAAAAAAAAAAAAAA
44444222222222AAIAIAAAAAAAAAAAAAAAAAAAAAAAAAAAAAAAAAAAAAAAAAAAAA
44444222222222AAIA4AAAAAAAAAAAAAAAAAAAAAAAAAAAAAAAAAAAAAAAAAAAAA
44444222222222AAAA4AAAAAAAAAAAAAAAAAAAAAAAAAAAAAAAAAAAAAAAAAAAAA
44444222222222AAAAAAAAAAAAAAAAAAAAAAAAAAAAAAAAAAAAAAAAAAAAAAAAAA
44444222222222AAAAAAAAIAAAAAAAAAAAAAAAAAAAAAAAAAAAAAAAAAAAAAAAAA
44444222222222AAAAAAAAIAAAAAAAAAAAAAAAAAAAAAAAIAAAAAAAAAAAAAAAAA
44444222222222AAAAAAAAIAAAAIAAAAAAAAAAAAAAAAAAIAAAAAAAAAAAAAAAAA
44444222222222AAAAAAAAIAAAAIAAAAAAAAAAAAAAAAAA2AAAAAAAAAAAAAAAAA
44444222222222AAAAAAAA4AAAA2AAAAAAAAAAAAAAAAAA2AAAAAAAAAAAAAAAAA
44444222222222AAAIAAAA4AAAA2AAAAAAAAAAAAAAAAAA2AAAAAAAAAAAAAAAAA
44444222222222AAAIAAAA4AAAA2AAIAAAAAAAAAAAAAAA2AAAAAAAAAAAAAAAAA
44444222222222AAA2AAAA4AAAA2AAIAAAAAAAAAAAAAAA2AAAAAAAAAAAAAAAAA
44444222222222AAA2AAAA2AAAA2AAIAAAAAAAAAAAAAAA2AAAAAAAAAAAAAAAAA
44444222222222AAA2AAAA2AAAA2AA2AAAAAAAAAAAAAAA2AAAAAAAAAAAAAAAAA
44444222222222AAA2AAAA2AAAA2AAAAAAAAAAAAAAAAAA2AAAAAAAAAAAAAAAAA
44444222222222AAAAAAAA2AAAA2AAAAAAAAAAAAAAAAAA2AAAAAAAAAAAAAAAAA
44444222222222AAAAAAAA2AAAA2AAAAAAAAAAAAAAAAAAAAAAAAAAAAAAAAAAAA
44444222222222AAAAAAAAAAAAA2AAAAAAAAAAAAAAAAAAAAAAAAAAAAAAAAAAAA
44444222222222AAAAAAAAAAAAAAAAAAAAAAAAAAAAAAAAAAAAAAAAAAAAAAAAAA
44444222222222AAAAAAAAAAAAAAAAAAAAAAAAAAAAAAAIAAAAAAAAAAAAAAAAAA
44444222222222AAAAAAAAAAAAAAAAAAAAAAAAAAAAAAAIAAAAAAIAAAAAAAAAAA
44444222222222AAAAAAAAAAAAAAAAAAAAAAAAAAAIAAAIAAAAAAIAAAAAAAAAAA
44444222222222AAAAAAAAAAAAAAAAAAAAAAAIAAAIAAAIAAAAAAIAAAAAAAAAAA
44444222222222AAAAAAAAAAAAAAAAAAAAAAAIAAAIAAAIAAAAAAIAAIAAAAAAAA
44444222222222AAAAAAAAAAAAAAAAAAAAAAAIAAAIAAAIAAAAAAIAAIAAAAAAIA
44444222222222AAAAAAAAAAAAAAAAAAAAAAAIAAAIAAAIAAAAAAIAIIAAAAAAIA
44444222222222AAAAAAAAAAAAAAAAAAAAAAAIAAAIAAAIIAAAAAIAIIAAAAAAIA
44444222222222AAAAAAAAAAAAAAAAAAAAAAAIAAAIAIAIIAAAAAIAIIAAAAAAIA
44444222222222AAAAAAAAAAAAAAAAAAAAAAAIAAAIIIAIIAAAAAIAIIAAAAAAIA
44444222222222AAIAAAAAAAAAAAAAAAAAAAAIAAAIIIAIIAAAAAIAIIAAAAAAIA
44444222222222AAIAAAAAAAAAAAAAAAAAAAAIAAAII4A44AAAAA2AI2AAAAAAIA
44444222222222AAIAAAAAAAAAAAAAAAAAAAA2AAAII4A44AAAAA2AI2AAAAAAIA
44444222222222AAIAAAAAAAAAAAAAAAAAAAA2AAA4I4A24AAAAAAAI2AAAAAAIA
44444222222222AAIAAAAAAAAAAAAAAAAAAAA2AAA4I4A24AAAAAAA42AAAAAAIA
44444222222222AAAAAAAAAAAAAAAAAAAAAAA2AAA4I4A24AAAAAAA42AAAAAAIA
44444222222222AAAAAAAAAAAAAAAAAAAAAAA2AAA4I4A24AAAAAAA22AAAAAAIA
44444222222222AAAAAAAAAAAAAAAAAAAAAAA2AAA444A22AAAAAAA22AAAAAAIA
44444222222222AAAAAAAAAAAAAAAAAAAAAAA2AAA444A22AAAAAAA22AAAAAAAA
44444222222222AAAAAAAAAAAAAAAAAAAAAAA2AAA422A22AAAAAAA22AAAAAAAA
44444222222222AAAAAAAAAAAAAAAAAAAAAAA2AAA222A22AAAAAAA22AAAAAAAA
44444222222222AAAAAAAAAAAAAAAAAAAAAAA2AAA222A2AAAAAAAA22AAAAAAAA
44444222222222AAAAAAAAAAAAAAAAAAAAAAA2AAA222A2AAAAAAAAA2AAAAAAAA
44444222222222AAAAAAAAAAAAAAAAAAAAAAAAAAA222A2AAAAAAAAA2AAAAAAAA
44444222222222AAAAAAAAAAAAAAAAAAAAAAAAAAA222A2AAAAAAAAAAAAAAAAAA
44444222222222AAAAAAAAAAAAAAAAAAAAAAAAAAA222A2AAAAAAIAAAAAAAAAAA
44444222222222AAAAAAAAAAAAAAAAAAAAAAAAAAA222A2IAAAAAIAAAAAAAAAAA
44444222222222AAAAAAAAAAAAAAAAAAAAIAAAAAA222A2IAAAAAIAAAAAAAAAAA
44444222222222AAAAAAAAAAAAAAAAAAAA4AAAAAA222A22AAAAAIAAAAAAAAAAA
44444222222222AAAAAAAAAAAAAAAAAAAA4AAAAAA22AA22AAAAAIAAAAAAAAAAA
44444222222222AAAAAAAAAAAAAAAAAAAA4AAAAAA22AA2AAAAAAIAAAAAAAAAAA
44444222222222AAAAAAAAAAAAAAAAAAAA4AAAAAA22AA2AAAAAA2AAAAAAAAAAA
44444222222222AAAAAAAAAAAAAAAAAAAA2AAAAAA22AA2AAAAAA2AAAAAAAAAAA
44444222222222AAAAAAAAAAAAAAAAAAAA2AAAAAAA2AA2AAAAAA2AAAAAAAAAAA
44444222222222AAAAAAAAAAAAAAAAAAAA2AAAAAAAAAA2AAAAAA2AAAAAAAAAAA
44444222222222AAAAAAAAAAAAAAAAAAAAAAAAAAAAAAA2AAAAAA2AAAAAAAAAAA
44444222222222AAAAAAAAAAAAAAAAAAAAAAAAAAAAAAAAAAAAAA2AAAAAAAAAAA
44444222222222AAAAAAAAAAAAAAAAAAAAAAAAAAAAAAAAAAAAAAAAAAAAAAAAAA
44444222222222AAAAAAAAAAAAAAAAAAAAAAAAAAAAAAAAAAAIAAAAAAAAAAAAAA
44444222222222AAAAAAAAAAAAAAAAAAAAAAAAAAAAAAAAAAA2AAAAAAAAAAAAAA
44444222222222AAAAAAAAAAAAAAAAAAAAAAAAAAAAAAAAAAA2AAAAAAAIAAAAAA
44444222222222AAAAAAAAAAAAAAAAAAAAAAAAAAAAAAAAAAA2AAAAAAA4AAAAAA
44444222222222AAAAAAAAAAAAAAAAAAAAAAAAAAAAAAAAAAA2AAAAAAA2AAAAAA
44444222222222AAAAAAAAAAAAAAAAAAAAAAAAAAAAAAAAAAAAAAAAAAA2AAAAAA
44444222222222AAAAAAAAAAAAAIAAAAAAAAAAAAAAAAAAAAAAAAAAAAA2AAAAAA
44444222222222AAAAAAAAAAAAA4AAAAAAAAAAAAAAAAAAAAAAAAAAAAA2AAAAAA
44444222222222AAAAAAAAAAAAA2AAAAAAAAAAAAAAAAAAAAAAAAAAAAA2AAAAAA
44444222222222AAAAAAAAAAAAAAAAAAAAAAAAAAAAAAAAAAAAAAAAAAA2AAAAAA
44444222222222AAAAAAAAAAAAAAAAAAAAAAAAAAAAAAAAAAAAAAAAAAAAAAAAAA
44444222222222AAAAAAAAAAAAAAAAAAAAAAAAAAAAAAAAAAAAAAAAAIAAAAAAAA
44444222222222AAAAAAAAAAAAAAAAAAAAAAAAAAAAAAAAAAAAAAAAA2AAAAAAAA
44444222222222AAAAAAAAAAAAAAAAAAAAAAAAAAAAAAAAAAAAAAAAAAAAAAAAAA
44444222222222AAAAAAAAAAAAAAAAAAAAAAAAAAIAAAAAAAAAAAAAAAAAAAAAAA
44444222222222AAAAAAAAAAAAAAAAAAAAAAAAAA2AAAAAAAAAAAAAAAAAAAAAAA
44444222222222AAAAAAAAAAAAAAAAAAAAAAAIAA2AAAAAAAAAAAAAAAAAAAAAAA
44444222222222AAAAAAAAAAAAAAAAAAAAAAA4AA2AAAAAAAAAAAAAAAAAAAAAAA
44444222222222AAAAAAAAAAAAAAAAAAAAAAA4AAAAAAAAAAAAAAAAAAAAAAAAAA
44444222222222AAAAAAAAAAAAAAAAAAAAAAA2AAAAAAAAAAAAAAAAAAAAAAAAAA
44444222222222AAAAAAAAAAAAAAAAAAAAAAAAAAAAAAAAAAAAAAAAAAAAAAAAAA
44444222222222IAAAAAAAAAAAAAAAAAAAAAAAAAAAAAAAAAAAAAAAAAAAAAAAAA
444442222222224AAAAAAAAAAAAAAAAAAAAAAAAAAAAAAAAAAAAAAAAAAAAAAAAA
44444222222222AAAAAAAAAAAAAAAAAAAAAAAAAAAAAAAAAAAAAAAAAAAAAAAAAA
44444222222222AAAAAAAAAAAAAAAAAAAAAAAAAAAAAAAIAAAAAAAAAAAAAAAAAA
44444222222222IAAAAAAAAAAAAAAAAAAAAAAAAAAAAAAIAAAAAAAAAAAAAAAAAA
444442222222224AAAAAAAAAAAAAAAAAAAAAAAAAAAAAAIAAAAAAAAAAAAAAAAAA
44444222222222AAAAAAAAAAAAAAAAAAAAAAAAAAAAAAAIAAAAAAAAAAAAAAAAAA
44444222222222AAAAAAAAAAAAAAAAAAAAAAAAAAAAAAA4AAAAAAAAAAAAAAAAAA
44444222222222AAAAAAAAAAAAAAAAAAAAAAAAAAAAAAA2AAAAAAAAAAAAAAAAAA
44444222222222AAAAAAAAAAAAAAAAAAAAAAAAAAAAAAAAAAAAAAAAAAAAAAAAAA
44444222222222AAAAAAAAAAAAAAAAAAAAAAAAAAAAAAAAAAAAAAAAIAAAAAAAAA
44444222222222AAAAAAAAAAAAAAAAAAAAAAAAAAAAAAAAAIAAAAAAIAAAAAAAAA
44444222222222AAAAAAAAAAAAAAAAAAIAAAAAAAAAAAAAAIAAAAAAIAAAAAAAAA
44444222222222AAAAAAAAAAAAAAAAAAIAAAAAAAAAAAAAAIAAAAAA4AAAAAAAAA
44444222222222AAAAAAAAAAAAAAAAAAAAAAAAAAAAAAAAAIAAAAAA4AAAAAAAAA
44444222222222AAAAAAAAAAAAAAAAAAAAAAAAAAAAAAAAA4AAAAAA2AAAAAAAAA
44444222222222AAAIAAAAAAAAAAAAAAAAAAAAAAAAAAAAA4AAAAAA2AAAAAAAAA
44444222222222AAAIAAAAAAAAAAAAAAAAAAAAAAAAAAAAA4AAAAAI2AAAAAAAAA
44444222222222AAAIAAAAAAAAAIAAAAAAAAAAAAAAAAAAA4AAAAAI2AAAAAAAAA
44444222222222AAAIAAAAAAAAA2AAAAAAAAAAAAAAAAAAA4AAAAAI2AAAAAAAAA
44444222222222AAA4AAAAAAAAA2AAAAAAAAAAAAAAAAAAA4AAAAAI2AAAAAAAAA
44444222222222AAA2AAAAAAAAA2AAAAAAAAAAAAAAAAAAA4AAAAAI2AAAAAAAAA
44444222222222AAA2AAAAAAAAA2AAAAAAAAAAAAAAAAAAA2AAAAAA2AAAAAAAAA
44444222222222AAAAAAAAAAAAA2AAAAAAAAAAAAAAAAAAA2AAAAAA2AAAAAAAAA
44444222222222AAAAAAAAAAAAA2AAAAAAAAAAAAAAAAAAAAAAAAAA2AAAAAAAAA
44444222222222AAAAAAAAAAAAA2AAAAAAAAAAAAAAAAAAAAAAAAAAAAAAAAAAAA
44444222222222AAAAAAAAAAAAA2AAAAAAAAAAAAAAAAAIAAAAAAAAAAAAAAAAAA
44444222222222AAAAAAAAAAAAAAAAAAAAAAAAAAAAAAAIAAAAAAAAAAAAAAAAAA
44444222222222AAAAAAAAAAAAAAAAAAAAAAAAAAAAAAA4AAAAAAAAAAAAAAAAAA
44444222222222AAAAAAAAAAAAAAAAAAAAAAAAAAAAAAA2AAAAAAAAAAAAAAAAAA
44444222222222AAAAAIAAAAAAAAAAAAAAAAAAAAAAAAA2AAAAAAAAAAAAAAAAAA
44444222222222AAAAA4AAAAAAAAAAAAAAAAAAAAAAAAA2AAAAAAAAAAAAAAAAAA
44444222222222AAAAA4AAIAAAAAAAAAAAAAAAAAAAAAA2AAAAAAAAAAAAAAAAAA
44444222222222AAAAA4AA4AAAAAAAAAAAAAAAAAAAAAA2AAAAAAAAAAAAAAAAAA
44444222222222AAAAA2AA4AAAAAAAAAAAAAAAAAAAAAA2AAAAAAAAAAAAAAAAAA
44444222222222AAAAA2AAAAAAAAAAAAAAAAAAAAAAAAA2AAAAAAAAAAAAAAAAAA
44444222222222AAAAAAAAAAAAAAAAAAAAAAAAAAAAAAA2AAAAAAAAAAAAAAAAAA
44444222222222AAAIAAAAAAAAAAAAAAAAAAAAAAAAAAA2AAAAAAAAAAAAAAAAAA
44444222222222AAA4AAAAAAAAAAAAAAAAAAAAAAAAAAA2AAAAAAAAAAAAAAAAAA
44444222222222AAA4AAAAAAAAAAAAAAAAAAAAAIAAAAA2AAAAAAAAAAAAAAAAAA
44444222222222AAA4AAAAAAAAAAAAAAAAAAAAAIAAAAAAAAAAAAAAAAAAAAAAAA
44444222222222AAA4AAAAAAAAAAAAAAAAAAAAA4AAAAAAAAAAAAAAAAAAAAAAAA
[MLOP] Prefetch Degree Mean: 7.85360
[MLOP] Prefetch Degree SD: 2.89123
[MLOP] Max Score Left Mean (%): 48.08108
[MLOP] Max Score Left SD (%): 14.37747
[MLOP] Max Score Right Mean (%): 79.49279
[MLOP] Max Score Right SD (%): 13.57976

[MLOP] History of tracked zone:
IIIIIIIIIIIIIIIIIIIIIIIIIIIIIIIIIIIIIIIIIIIIIIIIIIIIIIIIIIIIIIII
IIIIIIIIIIIIIIIIIIIIIAIIIIIIIIIIIIIIIIIIIIIIIIIIIIIIIIIIIIIIIIII
4I44I44IIAIIIIIIIIIIIAIIIIIIIIIIIIIIIIIIIIIIIIIIIIIIIIIIIIIIIIII
4I44I44IIAIII4I44II4IA4IIIIIII44II4IIAIIIIIIIIIIIIIIIIIIIIIIIIII
4I44I44IIAIII4I44II4IA4I4II4II44II4I4AI4II4IIAIIIIIIIIIIIIIIIIII
4I44I44IIAIII4I44II4IA4I44I44I44II4I4AI4II4IIAIIIIIIIIIIIIIIIIII
4I44I44I4AI4I44444I44A4444444A44II4I4AI4II4IIAIIIIIIIIIIIIIIIIII
4I44I44I4AI4I44444I44A4444444A444I444A44I44I4AI4II4II4IIAIIIIIII
4I44I44I4AI4444444444A4444444A444I444A44I44I4AI4II4II4IIAIIIIIII
444444444A44444444444A444A444A444I444A44I44I4AI4II4II4IIAIIIIIII
444444A44A44444444444A444A444A444I444A44I44I4AI4II4II4IIAIIIIIII
444444A44A44444444444A444A444A4444444A44I44I4AI4II4II4IIAIIIIIII
444444A44A44444444444A444A444A4444444A44IA4I4AI4II4II4IIAIIIIIII
444444A44A4444A444444A444A444A4444444A44IA4I4AI4II4II4IIAIIIIIII
444444A44I4444A444444A444A444A4444444A44IA4I4AI4II4II4IIAIIIIIII
444444A4444444A444444A444A444A4444444A44IA4I4AI4II4II4IIAIIIIIII
444444A44A4444A444444A444A444A4444444A44IA4I4AI4II4II4IIAIIIIIII
444444A44A4444A444244A444A444A4444444A44IA4I4AI4II4II4IIAIIIIIII
444444A44A444AA444244A444A444A4444444A44IA4I4AI4II4II4IIAIIIIIII
444444A44A444IA444244A444A444A4444444A44IA4I4AI4II4II4IIAIIIIIII
444444A44A444AA444244A444A444A4444444A44IA4I4AI4II4II4IIAIIIIIII
444444A44A444AA444244A444A244A4444444A44IA4I4AI4II4II4IIAIIIIIII
444444A44A444AA444244A444A244A4444244A44IA4I4AI4II4II4IIAIIIIIII
444444A44I444AA444244A444A244A4444244A44IA4I4AI4II4II4IIAIIIIIII
444444A444444AA444244A444A244A4444244A44IA4I4AI4II4II4IIAIIIIIII
444444A44A444AA444244A444A244A4444244A44IA4I4AI4II4II4IIAIIIIIII
444444A44A444AA444244A244A244A4444244A44IA4I4AI4II4II4IIAIIIIIII
444444A44A444AA444244A244A244A4444244A44IA4I4AI4II4II2IIAIIIIIII
444444A44A424AA444244A244A244A4444244A44IA4I4AI4II4II2IIAIIIIIII
444244A44A424AA444244A244A244A4444244A44IA4I4AI4II4II2IIAIIIIIII
[MLOP] Prefetch Degree Mean: 6.77170
[MLOP] Prefetch Degree SD: 1.79589
[MLOP] Max Score Left Mean (%): 28.66000
[MLOP] Max Score Left SD (%): 6.72550
[MLOP] Max Score Right Mean (%): 62.56038
[MLOP] Max Score Right SD (%): 9.24872

Channel_0_RQ_row_buffer_hit 58413
Channel_0_RQ_row_buffer_miss 1368551
Channel_0_WQ_row_buffer_hit 47018
Channel_0_WQ_row_buffer_miss 620386
Channel_0_WQ_full 0
Channel_0_dbus_congested 399777

Channel_1_RQ_row_buffer_hit 58511
Channel_1_RQ_row_buffer_miss 1369910
Channel_1_WQ_row_buffer_hit 47015
Channel_1_WQ_row_buffer_miss 618827
Channel_1_WQ_full 0
Channel_1_dbus_congested 400455

avg_congested_cycle 9

DRAM_bw_pochs 4733471
DRAM_bw_level_0 4702198
DRAM_bw_level_1 27156
DRAM_bw_level_2 3423
DRAM_bw_level_3 694
