*************************************************
   ChampSim Multicore Out-of-Order Simulator
   Last compiled: Mar 31 2025 20:14:32
*************************************************
parsing config file: /data3/config/mlop.ini

trace_0 /data3/CLOUD9/traces/cloud9_phase4_core0.trace.xz
trace_1 /data3/CLOUD9/traces/cloud9_phase4_core1.trace.xz
trace_2 /data3/CLOUD9/traces/cloud9_phase4_core2.trace.xz
trace_3 /data3/CLOUD9/traces/cloud9_phase4_core3.trace.xz
adding L2C_PREFETCHER: MLOP
adding L2C_PREFETCHER: MLOP
adding L2C_PREFETCHER: MLOP
adding L2C_PREFETCHER: MLOP
Initialize SHIP state
warmup_instructions 50000000
simulation_instructions 150000000
champsim_seed 7350
measure_ipc 0
measure_ipc_epoch 1000
measure_dram_bw 1
measure_dram_bw_epoch 256
measure_cache_acc 1
measure_cache_acc_epoch 1024
l1d_perfect 0
l2c_perfect 0
llc_perfect 0
l1d_semi_perfect 0
l2c_semi_perfect 0
llc_semi_perfect 0
semi_perfect_cache_page_buffer_size 64

num_cpus 4
cpu_freq 4000
dram_io_freq 2400
page_size 4096
block_size 64
max_read_per_cycle 8
max_fill_per_cycle 1
dram_channels 2
log2_dram_channels 1
dram_ranks 1
dram_banks 8
dram_rows 65536
dram_columns 128
dram_row_size 8
dram_size 8192
dram_pages 2097152

fetch_width 6
decode_width 6
exec_width 4
lq_width 2
sq_width 2
retire_width 4
scheduler_size 128
branch_mispredict_penalty 20
rob_size 256
lq_size 72
sq_size 56
num_instr_destinations_sparc 4
num_instr_destinations 2
num_instr_sources 4

itlb_set 16
itlb_way 8
itlb_rq_size 16
itlb_wq_size 16
itlb_pq_size 0
itlb_mshr_size 8
itlb_latency 1

dtlb_set 16
dtlb_way 4
dtlb_rq_size 16
dtlb_wq_size 16
dtlb_pq_size 0
dtlb_mshr_size 8
dtlb_latency 1

stlb_set 128
stlb_way 12
stlb_rq_size 32
stlb_wq_size 32
stlb_pq_size 0
stlb_mshr_size 16
stlb_latency 8

l1i_size 32
l1i_set 64
l1i_way 8
l1i_rq_size 64
l1i_wq_size 64
l1i_pq_size 8
l1i_mshr_size 8
l1i_latency 1

l1d_size 32
l1d_set 64
l1d_way 8
l1d_rq_size 64
l1d_wq_size 64
l1d_pq_size 8
l1d_mshr_size 16
l1d_latency 4

l2c_size 256
l2c_set 512
l2c_way 8
l2c_rq_size 32
l2c_wq_size 32
l2c_pq_size 32
l2c_mshr_size 32
l2c_latency 10

llc_size 8192
llc_set 8192
llc_way 16
llc_rq_size 128
llc_wq_size 128
llc_pq_size 128
llc_mshr_size 256
llc_latency 20

dram_channel_width 8
dram_wq_size 64
dram_rq_size 64
tRP 15
tRCD 15
tCAS 12.5
dram_dbus_turn_around_time 30
dram_write_high_wm 56
dram_write_low_wm 48
min_dram_writes_per_switch 16
dram_mtps 2400
dram_dbus_return_time 13

mlop_pref_degree 16
mlop_num_updates 500
mlop_l1d_thresh 2
mlop_l2c_thresh 0.75
mlop_llc_thresh 0.3
mlop_debug_level 0
mlop_blocks_in_cache 4096
mlop_blocks_in_zone 64
mlop_amt_size 2048
mlop_PF_DEGREE 16
mlop_NUM_UPDATES 500
mlop_L1D_THRESH 1000
mlop_L2C_THRESH 375
mlop_LLC_THRESH 150
mlop_ORIGIN 63
mlop_MAX_OFFSET 63
mlop_MIN_OFFSET -63
mlop_ORIGIN 63
mlop_NUM_OFFSETS 127


Heartbeat CPU  3 instructions:    1000001 cycles:     392398 heartbeat IPC: 2.54844 cumulative IPC: 2.54844 (Simulation time: 0 hr 0 min 9 sec) 
Heartbeat CPU  2 instructions:    1000002 cycles:     425365 heartbeat IPC: 2.35093 cumulative IPC: 2.35093 (Simulation time: 0 hr 0 min 9 sec) 
Heartbeat CPU  1 instructions:    1000000 cycles:     451747 heartbeat IPC: 2.21363 cumulative IPC: 2.21363 (Simulation time: 0 hr 0 min 10 sec) 
Heartbeat CPU  0 instructions:    1000002 cycles:     500645 heartbeat IPC: 1.99743 cumulative IPC: 1.99743 (Simulation time: 0 hr 0 min 11 sec) 
Heartbeat CPU  3 instructions:    2000001 cycles:     777971 heartbeat IPC: 2.59354 cumulative IPC: 2.57079 (Simulation time: 0 hr 0 min 18 sec) 
Heartbeat CPU  2 instructions:    2000002 cycles:     813936 heartbeat IPC: 2.57353 cumulative IPC: 2.45720 (Simulation time: 0 hr 0 min 19 sec) 
Heartbeat CPU  1 instructions:    2000002 cycles:     881788 heartbeat IPC: 2.32536 cumulative IPC: 2.26812 (Simulation time: 0 hr 0 min 20 sec) 
Heartbeat CPU  0 instructions:    2000003 cycles:     930496 heartbeat IPC: 2.32639 cumulative IPC: 2.14939 (Simulation time: 0 hr 0 min 22 sec) 
Heartbeat CPU  3 instructions:    3000002 cycles:    1163768 heartbeat IPC: 2.59204 cumulative IPC: 2.57784 (Simulation time: 0 hr 0 min 27 sec) 
Heartbeat CPU  2 instructions:    3000002 cycles:    1201287 heartbeat IPC: 2.58164 cumulative IPC: 2.49732 (Simulation time: 0 hr 0 min 28 sec) 
Heartbeat CPU  1 instructions:    3000000 cycles:    1328010 heartbeat IPC: 2.24103 cumulative IPC: 2.25902 (Simulation time: 0 hr 0 min 30 sec) 
Heartbeat CPU  0 instructions:    3000000 cycles:    1366510 heartbeat IPC: 2.29350 cumulative IPC: 2.19537 (Simulation time: 0 hr 0 min 31 sec) 
Heartbeat CPU  3 instructions:    4000000 cycles:    1550162 heartbeat IPC: 2.58803 cumulative IPC: 2.58038 (Simulation time: 0 hr 0 min 36 sec) 
Heartbeat CPU  2 instructions:    4000000 cycles:    1581008 heartbeat IPC: 2.63351 cumulative IPC: 2.53003 (Simulation time: 0 hr 0 min 37 sec) 
Heartbeat CPU  1 instructions:    4000000 cycles:    1752809 heartbeat IPC: 2.35405 cumulative IPC: 2.28205 (Simulation time: 0 hr 0 min 41 sec) 
Heartbeat CPU  0 instructions:    4000000 cycles:    1798338 heartbeat IPC: 2.31574 cumulative IPC: 2.22428 (Simulation time: 0 hr 0 min 42 sec) 
Heartbeat CPU  3 instructions:    5000001 cycles:    1935591 heartbeat IPC: 2.59451 cumulative IPC: 2.58319 (Simulation time: 0 hr 0 min 45 sec) 
Heartbeat CPU  2 instructions:    5000000 cycles:    1970144 heartbeat IPC: 2.56980 cumulative IPC: 2.53789 (Simulation time: 0 hr 0 min 45 sec) 
Heartbeat CPU  0 instructions:    5000002 cycles:    2234963 heartbeat IPC: 2.29030 cumulative IPC: 2.23717 (Simulation time: 0 hr 0 min 51 sec) 
Heartbeat CPU  1 instructions:    5000003 cycles:    2250370 heartbeat IPC: 2.00981 cumulative IPC: 2.22186 (Simulation time: 0 hr 0 min 52 sec) 
Heartbeat CPU  3 instructions:    6000002 cycles:    2321255 heartbeat IPC: 2.59293 cumulative IPC: 2.58481 (Simulation time: 0 hr 0 min 53 sec) 
Heartbeat CPU  2 instructions:    6000003 cycles:    2350761 heartbeat IPC: 2.62732 cumulative IPC: 2.55237 (Simulation time: 0 hr 0 min 54 sec) 
Heartbeat CPU  1 instructions:    6000000 cycles:    2676713 heartbeat IPC: 2.34552 cumulative IPC: 2.24156 (Simulation time: 0 hr 1 min 1 sec) 
Heartbeat CPU  3 instructions:    7000003 cycles:    2709575 heartbeat IPC: 2.57520 cumulative IPC: 2.58343 (Simulation time: 0 hr 1 min 1 sec) 
Heartbeat CPU  2 instructions:    7000002 cycles:    2752446 heartbeat IPC: 2.48951 cumulative IPC: 2.54319 (Simulation time: 0 hr 1 min 3 sec) 
Heartbeat CPU  0 instructions:    6000000 cycles:    2836949 heartbeat IPC: 1.66116 cumulative IPC: 2.11495 (Simulation time: 0 hr 1 min 5 sec) 
Heartbeat CPU  3 instructions:    8000000 cycles:    3094754 heartbeat IPC: 2.59619 cumulative IPC: 2.58502 (Simulation time: 0 hr 1 min 11 sec) 
Heartbeat CPU  1 instructions:    7000003 cycles:    3098437 heartbeat IPC: 2.37123 cumulative IPC: 2.25920 (Simulation time: 0 hr 1 min 11 sec) 
Heartbeat CPU  2 instructions:    8000000 cycles:    3134163 heartbeat IPC: 2.61974 cumulative IPC: 2.55252 (Simulation time: 0 hr 1 min 12 sec) 
Heartbeat CPU  0 instructions:    7000003 cycles:    3281810 heartbeat IPC: 2.24790 cumulative IPC: 2.13297 (Simulation time: 0 hr 1 min 15 sec) 
Heartbeat CPU  3 instructions:    9000000 cycles:    3479159 heartbeat IPC: 2.60142 cumulative IPC: 2.58683 (Simulation time: 0 hr 1 min 20 sec) 
Heartbeat CPU  2 instructions:    9000000 cycles:    3517471 heartbeat IPC: 2.60887 cumulative IPC: 2.55866 (Simulation time: 0 hr 1 min 21 sec) 
Heartbeat CPU  1 instructions:    8000000 cycles:    3518255 heartbeat IPC: 2.38198 cumulative IPC: 2.27385 (Simulation time: 0 hr 1 min 21 sec) 
Heartbeat CPU  0 instructions:    8000000 cycles:    3719232 heartbeat IPC: 2.28611 cumulative IPC: 2.15098 (Simulation time: 0 hr 1 min 26 sec) 
Heartbeat CPU  3 instructions:   10000003 cycles:    3864121 heartbeat IPC: 2.59767 cumulative IPC: 2.58791 (Simulation time: 0 hr 1 min 30 sec) 
Heartbeat CPU  2 instructions:   10000001 cycles:    3895558 heartbeat IPC: 2.64490 cumulative IPC: 2.56703 (Simulation time: 0 hr 1 min 30 sec) 
Heartbeat CPU  1 instructions:    9000001 cycles:    3942311 heartbeat IPC: 2.35818 cumulative IPC: 2.28293 (Simulation time: 0 hr 1 min 32 sec) 
Heartbeat CPU  0 instructions:    9000003 cycles:    4164725 heartbeat IPC: 2.24471 cumulative IPC: 2.16101 (Simulation time: 0 hr 1 min 36 sec) 
Heartbeat CPU  3 instructions:   11000000 cycles:    4250278 heartbeat IPC: 2.58961 cumulative IPC: 2.58807 (Simulation time: 0 hr 1 min 38 sec) 
Heartbeat CPU  2 instructions:   11000003 cycles:    4279033 heartbeat IPC: 2.60774 cumulative IPC: 2.57067 (Simulation time: 0 hr 1 min 38 sec) 
Heartbeat CPU  1 instructions:   10000003 cycles:    4529408 heartbeat IPC: 1.70330 cumulative IPC: 2.20779 (Simulation time: 0 hr 1 min 44 sec) 
Heartbeat CPU  0 instructions:   10000001 cycles:    4623376 heartbeat IPC: 2.18030 cumulative IPC: 2.16292 (Simulation time: 0 hr 1 min 46 sec) 
Heartbeat CPU  3 instructions:   12000000 cycles:    4635475 heartbeat IPC: 2.59607 cumulative IPC: 2.58873 (Simulation time: 0 hr 1 min 47 sec) 
Heartbeat CPU  2 instructions:   12000000 cycles:    4657576 heartbeat IPC: 2.64170 cumulative IPC: 2.57645 (Simulation time: 0 hr 1 min 47 sec) 
Heartbeat CPU  1 instructions:   11000002 cycles:    4961301 heartbeat IPC: 2.31539 cumulative IPC: 2.21716 (Simulation time: 0 hr 1 min 54 sec) 
Heartbeat CPU  3 instructions:   13000000 cycles:    5021570 heartbeat IPC: 2.59004 cumulative IPC: 2.58883 (Simulation time: 0 hr 1 min 55 sec) 
Heartbeat CPU  2 instructions:   13000001 cycles:    5057611 heartbeat IPC: 2.49978 cumulative IPC: 2.57038 (Simulation time: 0 hr 1 min 56 sec) 
Heartbeat CPU  0 instructions:   11000000 cycles:    5099879 heartbeat IPC: 2.09862 cumulative IPC: 2.15691 (Simulation time: 0 hr 1 min 57 sec) 
Heartbeat CPU  1 instructions:   12000000 cycles:    5391777 heartbeat IPC: 2.32301 cumulative IPC: 2.22561 (Simulation time: 0 hr 2 min 5 sec) 
Heartbeat CPU  3 instructions:   14000001 cycles:    5406845 heartbeat IPC: 2.59555 cumulative IPC: 2.58931 (Simulation time: 0 hr 2 min 5 sec) 
Heartbeat CPU  2 instructions:   14000003 cycles:    5445335 heartbeat IPC: 2.57916 cumulative IPC: 2.57101 (Simulation time: 0 hr 2 min 6 sec) 
Heartbeat CPU  0 instructions:   12000000 cycles:    5543907 heartbeat IPC: 2.25211 cumulative IPC: 2.16454 (Simulation time: 0 hr 2 min 8 sec) 
Heartbeat CPU  3 instructions:   15000000 cycles:    5793059 heartbeat IPC: 2.58924 cumulative IPC: 2.58931 (Simulation time: 0 hr 2 min 14 sec) 
Heartbeat CPU  2 instructions:   15000000 cycles:    5828208 heartbeat IPC: 2.61182 cumulative IPC: 2.57369 (Simulation time: 0 hr 2 min 15 sec) 
Heartbeat CPU  1 instructions:   13000001 cycles:    5842073 heartbeat IPC: 2.22076 cumulative IPC: 2.22524 (Simulation time: 0 hr 2 min 15 sec) 
Heartbeat CPU  0 instructions:   13000000 cycles:    6011276 heartbeat IPC: 2.13964 cumulative IPC: 2.16260 (Simulation time: 0 hr 2 min 19 sec) 
Heartbeat CPU  3 instructions:   16000000 cycles:    6176516 heartbeat IPC: 2.60785 cumulative IPC: 2.59046 (Simulation time: 0 hr 2 min 23 sec) 
Heartbeat CPU  2 instructions:   16000000 cycles:    6210328 heartbeat IPC: 2.61698 cumulative IPC: 2.57635 (Simulation time: 0 hr 2 min 24 sec) 
Heartbeat CPU  1 instructions:   14000000 cycles:    6323556 heartbeat IPC: 2.07691 cumulative IPC: 2.21394 (Simulation time: 0 hr 2 min 26 sec) 
Heartbeat CPU  0 instructions:   14000003 cycles:    6446442 heartbeat IPC: 2.29798 cumulative IPC: 2.17174 (Simulation time: 0 hr 2 min 29 sec) 
Heartbeat CPU  3 instructions:   17000000 cycles:    6561772 heartbeat IPC: 2.59568 cumulative IPC: 2.59076 (Simulation time: 0 hr 2 min 31 sec) 
Heartbeat CPU  2 instructions:   17000003 cycles:    6596497 heartbeat IPC: 2.58955 cumulative IPC: 2.57713 (Simulation time: 0 hr 2 min 32 sec) 
Heartbeat CPU  1 instructions:   15000002 cycles:    6775372 heartbeat IPC: 2.21329 cumulative IPC: 2.21390 (Simulation time: 0 hr 2 min 37 sec) 
Heartbeat CPU  0 instructions:   15000000 cycles:    6881761 heartbeat IPC: 2.29716 cumulative IPC: 2.17967 (Simulation time: 0 hr 2 min 39 sec) 
Heartbeat CPU  3 instructions:   18000003 cycles:    6945204 heartbeat IPC: 2.60803 cumulative IPC: 2.59172 (Simulation time: 0 hr 2 min 41 sec) 
Heartbeat CPU  2 instructions:   18000002 cycles:    6978712 heartbeat IPC: 2.61633 cumulative IPC: 2.57927 (Simulation time: 0 hr 2 min 41 sec) 
Heartbeat CPU  1 instructions:   16000000 cycles:    7227738 heartbeat IPC: 2.21059 cumulative IPC: 2.21369 (Simulation time: 0 hr 2 min 47 sec) 
Heartbeat CPU  3 instructions:   19000003 cycles:    7327564 heartbeat IPC: 2.61534 cumulative IPC: 2.59295 (Simulation time: 0 hr 2 min 50 sec) 
Heartbeat CPU  2 instructions:   19000003 cycles:    7360933 heartbeat IPC: 2.61629 cumulative IPC: 2.58119 (Simulation time: 0 hr 2 min 50 sec) 
Heartbeat CPU  0 instructions:   16000000 cycles:    7381473 heartbeat IPC: 2.00115 cumulative IPC: 2.16759 (Simulation time: 0 hr 2 min 51 sec) 
Heartbeat CPU  1 instructions:   17000002 cycles:    7677142 heartbeat IPC: 2.22517 cumulative IPC: 2.21437 (Simulation time: 0 hr 2 min 58 sec) 
Heartbeat CPU  3 instructions:   20000000 cycles:    7708321 heartbeat IPC: 2.62634 cumulative IPC: 2.59460 (Simulation time: 0 hr 2 min 59 sec) 
Heartbeat CPU  2 instructions:   20000000 cycles:    7753361 heartbeat IPC: 2.54823 cumulative IPC: 2.57953 (Simulation time: 0 hr 3 min 0 sec) 
Heartbeat CPU  0 instructions:   17000000 cycles:    7809519 heartbeat IPC: 2.33620 cumulative IPC: 2.17683 (Simulation time: 0 hr 3 min 1 sec) 
Heartbeat CPU  3 instructions:   21000001 cycles:    8092203 heartbeat IPC: 2.60497 cumulative IPC: 2.59509 (Simulation time: 0 hr 3 min 8 sec) 
Heartbeat CPU  1 instructions:   18000001 cycles:    8104086 heartbeat IPC: 2.34223 cumulative IPC: 2.22110 (Simulation time: 0 hr 3 min 8 sec) 
Heartbeat CPU  2 instructions:   21000001 cycles:    8138078 heartbeat IPC: 2.59932 cumulative IPC: 2.58046 (Simulation time: 0 hr 3 min 9 sec) 
Heartbeat CPU  0 instructions:   18000000 cycles:    8248553 heartbeat IPC: 2.27773 cumulative IPC: 2.18220 (Simulation time: 0 hr 3 min 12 sec) 
Heartbeat CPU  3 instructions:   22000003 cycles:    8474805 heartbeat IPC: 2.61369 cumulative IPC: 2.59593 (Simulation time: 0 hr 3 min 18 sec) 
Heartbeat CPU  2 instructions:   22000003 cycles:    8521886 heartbeat IPC: 2.60547 cumulative IPC: 2.58159 (Simulation time: 0 hr 3 min 19 sec) 
Heartbeat CPU  1 instructions:   19000000 cycles:    8522488 heartbeat IPC: 2.39004 cumulative IPC: 2.22940 (Simulation time: 0 hr 3 min 19 sec) 
Heartbeat CPU  0 instructions:   19000000 cycles:    8681707 heartbeat IPC: 2.30865 cumulative IPC: 2.18851 (Simulation time: 0 hr 3 min 22 sec) 
Heartbeat CPU  3 instructions:   23000002 cycles:    8860217 heartbeat IPC: 2.59462 cumulative IPC: 2.59587 (Simulation time: 0 hr 3 min 27 sec) 
Heartbeat CPU  2 instructions:   23000001 cycles:    8905277 heartbeat IPC: 2.60830 cumulative IPC: 2.58274 (Simulation time: 0 hr 3 min 28 sec) 
Heartbeat CPU  1 instructions:   20000000 cycles:    9021598 heartbeat IPC: 2.00357 cumulative IPC: 2.21690 (Simulation time: 0 hr 3 min 31 sec) 
Heartbeat CPU  0 instructions:   20000000 cycles:    9210470 heartbeat IPC: 1.89121 cumulative IPC: 2.17144 (Simulation time: 0 hr 3 min 35 sec) 
Heartbeat CPU  3 instructions:   24000000 cycles:    9244336 heartbeat IPC: 2.60335 cumulative IPC: 2.59618 (Simulation time: 0 hr 3 min 36 sec) 
Heartbeat CPU  2 instructions:   24000000 cycles:    9292631 heartbeat IPC: 2.58162 cumulative IPC: 2.58269 (Simulation time: 0 hr 3 min 37 sec) 
Heartbeat CPU  1 instructions:   21000000 cycles:    9438261 heartbeat IPC: 2.40002 cumulative IPC: 2.22499 (Simulation time: 0 hr 3 min 40 sec) 
Heartbeat CPU  3 instructions:   25000001 cycles:    9630263 heartbeat IPC: 2.59117 cumulative IPC: 2.59598 (Simulation time: 0 hr 3 min 45 sec) 
Heartbeat CPU  2 instructions:   25000000 cycles:    9673010 heartbeat IPC: 2.62896 cumulative IPC: 2.58451 (Simulation time: 0 hr 3 min 46 sec) 
Heartbeat CPU  0 instructions:   21000000 cycles:    9720001 heartbeat IPC: 1.96259 cumulative IPC: 2.16049 (Simulation time: 0 hr 3 min 47 sec) 
Heartbeat CPU  1 instructions:   22000001 cycles:    9856883 heartbeat IPC: 2.38879 cumulative IPC: 2.23194 (Simulation time: 0 hr 3 min 51 sec) 
Heartbeat CPU  3 instructions:   26000000 cycles:   10015309 heartbeat IPC: 2.59709 cumulative IPC: 2.59603 (Simulation time: 0 hr 3 min 55 sec) 
Heartbeat CPU  2 instructions:   26000003 cycles:   10058286 heartbeat IPC: 2.59555 cumulative IPC: 2.58493 (Simulation time: 0 hr 3 min 56 sec) 
Heartbeat CPU  0 instructions:   22000001 cycles:   10156066 heartbeat IPC: 2.29324 cumulative IPC: 2.16619 (Simulation time: 0 hr 3 min 59 sec) 
Heartbeat CPU  1 instructions:   23000003 cycles:   10278193 heartbeat IPC: 2.37355 cumulative IPC: 2.23775 (Simulation time: 0 hr 4 min 2 sec) 
Heartbeat CPU  3 instructions:   27000000 cycles:   10399428 heartbeat IPC: 2.60336 cumulative IPC: 2.59630 (Simulation time: 0 hr 4 min 5 sec) 
Heartbeat CPU  2 instructions:   27000002 cycles:   10446681 heartbeat IPC: 2.57470 cumulative IPC: 2.58455 (Simulation time: 0 hr 4 min 6 sec) 
Heartbeat CPU  0 instructions:   23000002 cycles:   10583439 heartbeat IPC: 2.33988 cumulative IPC: 2.17321 (Simulation time: 0 hr 4 min 10 sec) 
Heartbeat CPU  3 instructions:   28000000 cycles:   10781659 heartbeat IPC: 2.61622 cumulative IPC: 2.59700 (Simulation time: 0 hr 4 min 14 sec) 
Heartbeat CPU  1 instructions:   24000000 cycles:   10822782 heartbeat IPC: 1.83624 cumulative IPC: 2.21754 (Simulation time: 0 hr 4 min 15 sec) 
Heartbeat CPU  2 instructions:   28000000 cycles:   10831560 heartbeat IPC: 2.59821 cumulative IPC: 2.58504 (Simulation time: 0 hr 4 min 15 sec) 
Heartbeat CPU  0 instructions:   24000000 cycles:   11046411 heartbeat IPC: 2.15995 cumulative IPC: 2.17265 (Simulation time: 0 hr 4 min 20 sec) 
Heartbeat CPU  3 instructions:   29000002 cycles:   11165603 heartbeat IPC: 2.60455 cumulative IPC: 2.59726 (Simulation time: 0 hr 4 min 23 sec) 
Heartbeat CPU  2 instructions:   29000003 cycles:   11216218 heartbeat IPC: 2.59972 cumulative IPC: 2.58554 (Simulation time: 0 hr 4 min 25 sec) 
Heartbeat CPU  1 instructions:   25000003 cycles:   11288717 heartbeat IPC: 2.14623 cumulative IPC: 2.21460 (Simulation time: 0 hr 4 min 26 sec) 
Heartbeat CPU  0 instructions:   25000003 cycles:   11504912 heartbeat IPC: 2.18103 cumulative IPC: 2.17299 (Simulation time: 0 hr 4 min 32 sec) 
Heartbeat CPU  3 instructions:   30000002 cycles:   11550325 heartbeat IPC: 2.59928 cumulative IPC: 2.59733 (Simulation time: 0 hr 4 min 33 sec) 
Heartbeat CPU  2 instructions:   30000000 cycles:   11598274 heartbeat IPC: 2.61741 cumulative IPC: 2.58659 (Simulation time: 0 hr 4 min 34 sec) 
Heartbeat CPU  1 instructions:   26000003 cycles:   11718921 heartbeat IPC: 2.32448 cumulative IPC: 2.21863 (Simulation time: 0 hr 4 min 37 sec) 
Heartbeat CPU  3 instructions:   31000000 cycles:   11935458 heartbeat IPC: 2.59650 cumulative IPC: 2.59730 (Simulation time: 0 hr 4 min 42 sec) 
Heartbeat CPU  0 instructions:   26000002 cycles:   11944561 heartbeat IPC: 2.27454 cumulative IPC: 2.17672 (Simulation time: 0 hr 4 min 42 sec) 
Heartbeat CPU  2 instructions:   31000000 cycles:   11982233 heartbeat IPC: 2.60444 cumulative IPC: 2.58716 (Simulation time: 0 hr 4 min 43 sec) 
Heartbeat CPU  1 instructions:   27000002 cycles:   12145453 heartbeat IPC: 2.34449 cumulative IPC: 2.22305 (Simulation time: 0 hr 4 min 47 sec) 
Heartbeat CPU  3 instructions:   32000000 cycles:   12321991 heartbeat IPC: 2.58710 cumulative IPC: 2.59698 (Simulation time: 0 hr 4 min 52 sec) 
Heartbeat CPU  2 instructions:   32000000 cycles:   12362442 heartbeat IPC: 2.63013 cumulative IPC: 2.58849 (Simulation time: 0 hr 4 min 53 sec) 
Heartbeat CPU  0 instructions:   27000002 cycles:   12395548 heartbeat IPC: 2.21736 cumulative IPC: 2.17820 (Simulation time: 0 hr 4 min 54 sec) 
Heartbeat CPU  1 instructions:   28000000 cycles:   12603140 heartbeat IPC: 2.18489 cumulative IPC: 2.22167 (Simulation time: 0 hr 4 min 59 sec) 
Heartbeat CPU  3 instructions:   33000000 cycles:   12707819 heartbeat IPC: 2.59183 cumulative IPC: 2.59683 (Simulation time: 0 hr 5 min 1 sec) 
Heartbeat CPU  2 instructions:   33000002 cycles:   12747005 heartbeat IPC: 2.60036 cumulative IPC: 2.58884 (Simulation time: 0 hr 5 min 2 sec) 
Heartbeat CPU  0 instructions:   28000000 cycles:   12860761 heartbeat IPC: 2.14955 cumulative IPC: 2.17717 (Simulation time: 0 hr 5 min 5 sec) 
Heartbeat CPU  1 instructions:   29000000 cycles:   13062087 heartbeat IPC: 2.17890 cumulative IPC: 2.22017 (Simulation time: 0 hr 5 min 9 sec) 
Heartbeat CPU  3 instructions:   34000001 cycles:   13092512 heartbeat IPC: 2.59948 cumulative IPC: 2.59690 (Simulation time: 0 hr 5 min 10 sec) 
Heartbeat CPU  2 instructions:   34000000 cycles:   13126687 heartbeat IPC: 2.63378 cumulative IPC: 2.59014 (Simulation time: 0 hr 5 min 11 sec) 
Heartbeat CPU  0 instructions:   29000002 cycles:   13296289 heartbeat IPC: 2.29607 cumulative IPC: 2.18106 (Simulation time: 0 hr 5 min 15 sec) 
Heartbeat CPU  3 instructions:   35000003 cycles:   13477209 heartbeat IPC: 2.59945 cumulative IPC: 2.59698 (Simulation time: 0 hr 5 min 20 sec) 
Heartbeat CPU  1 instructions:   30000002 cycles:   13492895 heartbeat IPC: 2.32122 cumulative IPC: 2.22339 (Simulation time: 0 hr 5 min 20 sec) 
Heartbeat CPU  2 instructions:   35000001 cycles:   13522569 heartbeat IPC: 2.52601 cumulative IPC: 2.58827 (Simulation time: 0 hr 5 min 21 sec) 
Heartbeat CPU  0 instructions:   30000000 cycles:   13770467 heartbeat IPC: 2.10891 cumulative IPC: 2.17858 (Simulation time: 0 hr 5 min 27 sec) 
Heartbeat CPU  3 instructions:   36000000 cycles:   13862273 heartbeat IPC: 2.59696 cumulative IPC: 2.59698 (Simulation time: 0 hr 5 min 29 sec) 
Heartbeat CPU  2 instructions:   36000000 cycles:   13900841 heartbeat IPC: 2.64360 cumulative IPC: 2.58977 (Simulation time: 0 hr 5 min 30 sec) 
Heartbeat CPU  1 instructions:   31000001 cycles:   13939101 heartbeat IPC: 2.24112 cumulative IPC: 2.22396 (Simulation time: 0 hr 5 min 31 sec) 
Heartbeat CPU  0 instructions:   31000001 cycles:   14224997 heartbeat IPC: 2.20008 cumulative IPC: 2.17926 (Simulation time: 0 hr 5 min 38 sec) 
Heartbeat CPU  3 instructions:   37000000 cycles:   14248684 heartbeat IPC: 2.58792 cumulative IPC: 2.59673 (Simulation time: 0 hr 5 min 38 sec) 
Heartbeat CPU  2 instructions:   37000000 cycles:   14294056 heartbeat IPC: 2.54314 cumulative IPC: 2.58849 (Simulation time: 0 hr 5 min 40 sec) 
Heartbeat CPU  1 instructions:   32000000 cycles:   14386406 heartbeat IPC: 2.23561 cumulative IPC: 2.22432 (Simulation time: 0 hr 5 min 42 sec) 
Heartbeat CPU  3 instructions:   38000003 cycles:   14634292 heartbeat IPC: 2.59331 cumulative IPC: 2.59664 (Simulation time: 0 hr 5 min 48 sec) 
Heartbeat CPU  0 instructions:   32000000 cycles:   14658327 heartbeat IPC: 2.30771 cumulative IPC: 2.18306 (Simulation time: 0 hr 5 min 49 sec) 
Heartbeat CPU  2 instructions:   38000002 cycles:   14678226 heartbeat IPC: 2.60302 cumulative IPC: 2.58887 (Simulation time: 0 hr 5 min 49 sec) 
Heartbeat CPU  1 instructions:   33000003 cycles:   14815236 heartbeat IPC: 2.33193 cumulative IPC: 2.22744 (Simulation time: 0 hr 5 min 53 sec) 
Heartbeat CPU  3 instructions:   39000003 cycles:   15017507 heartbeat IPC: 2.60950 cumulative IPC: 2.59697 (Simulation time: 0 hr 5 min 58 sec) 
Heartbeat CPU  2 instructions:   39000000 cycles:   15061073 heartbeat IPC: 2.61200 cumulative IPC: 2.58946 (Simulation time: 0 hr 5 min 59 sec) 
Heartbeat CPU  0 instructions:   33000003 cycles:   15090545 heartbeat IPC: 2.31365 cumulative IPC: 2.18680 (Simulation time: 0 hr 6 min 0 sec) 
Heartbeat CPU  1 instructions:   34000001 cycles:   15300743 heartbeat IPC: 2.05970 cumulative IPC: 2.22211 (Simulation time: 0 hr 6 min 5 sec) 
Heartbeat CPU  3 instructions:   40000000 cycles:   15403205 heartbeat IPC: 2.59269 cumulative IPC: 2.59686 (Simulation time: 0 hr 6 min 7 sec) 
Heartbeat CPU  2 instructions:   40000000 cycles:   15448664 heartbeat IPC: 2.58004 cumulative IPC: 2.58922 (Simulation time: 0 hr 6 min 8 sec) 
Heartbeat CPU  0 instructions:   34000003 cycles:   15527476 heartbeat IPC: 2.28869 cumulative IPC: 2.18967 (Simulation time: 0 hr 6 min 10 sec) 
Heartbeat CPU  1 instructions:   35000003 cycles:   15734957 heartbeat IPC: 2.30302 cumulative IPC: 2.22435 (Simulation time: 0 hr 6 min 15 sec) 
Heartbeat CPU  3 instructions:   41000002 cycles:   15789097 heartbeat IPC: 2.59140 cumulative IPC: 2.59673 (Simulation time: 0 hr 6 min 16 sec) 
Heartbeat CPU  2 instructions:   41000003 cycles:   15829520 heartbeat IPC: 2.62567 cumulative IPC: 2.59010 (Simulation time: 0 hr 6 min 17 sec) 
Heartbeat CPU  0 instructions:   35000003 cycles:   16135414 heartbeat IPC: 1.64490 cumulative IPC: 2.16914 (Simulation time: 0 hr 6 min 24 sec) 
Heartbeat CPU  1 instructions:   36000000 cycles:   16147571 heartbeat IPC: 2.42357 cumulative IPC: 2.22944 (Simulation time: 0 hr 6 min 24 sec) 
Heartbeat CPU  3 instructions:   42000002 cycles:   16175526 heartbeat IPC: 2.58780 cumulative IPC: 2.59652 (Simulation time: 0 hr 6 min 25 sec) 
Heartbeat CPU  2 instructions:   42000003 cycles:   16208252 heartbeat IPC: 2.64039 cumulative IPC: 2.59127 (Simulation time: 0 hr 6 min 26 sec) 
Heartbeat CPU  3 instructions:   43000000 cycles:   16561997 heartbeat IPC: 2.58751 cumulative IPC: 2.59631 (Simulation time: 0 hr 6 min 34 sec) 
Heartbeat CPU  1 instructions:   37000001 cycles:   16570634 heartbeat IPC: 2.36372 cumulative IPC: 2.23287 (Simulation time: 0 hr 6 min 34 sec) 
Heartbeat CPU  0 instructions:   36000000 cycles:   16572301 heartbeat IPC: 2.28891 cumulative IPC: 2.17230 (Simulation time: 0 hr 6 min 34 sec) 
Heartbeat CPU  2 instructions:   43000001 cycles:   16592173 heartbeat IPC: 2.60470 cumulative IPC: 2.59158 (Simulation time: 0 hr 6 min 35 sec) 
Heartbeat CPU  3 instructions:   44000000 cycles:   16947756 heartbeat IPC: 2.59229 cumulative IPC: 2.59621 (Simulation time: 0 hr 6 min 43 sec) 
Heartbeat CPU  2 instructions:   44000000 cycles:   16979031 heartbeat IPC: 2.58493 cumulative IPC: 2.59143 (Simulation time: 0 hr 6 min 44 sec) 
Heartbeat CPU  1 instructions:   38000002 cycles:   16992457 heartbeat IPC: 2.37066 cumulative IPC: 2.23629 (Simulation time: 0 hr 6 min 44 sec) 
Heartbeat CPU  0 instructions:   37000002 cycles:   17009684 heartbeat IPC: 2.28633 cumulative IPC: 2.17523 (Simulation time: 0 hr 6 min 44 sec) 
Heartbeat CPU  3 instructions:   45000002 cycles:   17335030 heartbeat IPC: 2.58216 cumulative IPC: 2.59590 (Simulation time: 0 hr 6 min 52 sec) 
Heartbeat CPU  2 instructions:   45000003 cycles:   17365524 heartbeat IPC: 2.58738 cumulative IPC: 2.59134 (Simulation time: 0 hr 6 min 52 sec) 
Heartbeat CPU  0 instructions:   38000003 cycles:   17440756 heartbeat IPC: 2.31980 cumulative IPC: 2.17880 (Simulation time: 0 hr 6 min 54 sec) 
Heartbeat CPU  1 instructions:   39000001 cycles:   17574921 heartbeat IPC: 1.71684 cumulative IPC: 2.21907 (Simulation time: 0 hr 6 min 57 sec) 
Heartbeat CPU  3 instructions:   46000000 cycles:   17720576 heartbeat IPC: 2.59372 cumulative IPC: 2.59585 (Simulation time: 0 hr 7 min 0 sec) 
Heartbeat CPU  2 instructions:   46000003 cycles:   17748207 heartbeat IPC: 2.61313 cumulative IPC: 2.59181 (Simulation time: 0 hr 7 min 1 sec) 
Heartbeat CPU  0 instructions:   39000002 cycles:   17903776 heartbeat IPC: 2.15973 cumulative IPC: 2.17831 (Simulation time: 0 hr 7 min 5 sec) 
Heartbeat CPU  1 instructions:   40000000 cycles:   18004350 heartbeat IPC: 2.32867 cumulative IPC: 2.22169 (Simulation time: 0 hr 7 min 7 sec) 
Heartbeat CPU  3 instructions:   47000003 cycles:   18107247 heartbeat IPC: 2.58619 cumulative IPC: 2.59565 (Simulation time: 0 hr 7 min 10 sec) 
Heartbeat CPU  2 instructions:   47000001 cycles:   18135830 heartbeat IPC: 2.57982 cumulative IPC: 2.59156 (Simulation time: 0 hr 7 min 10 sec) 
Heartbeat CPU  0 instructions:   40000000 cycles:   18344411 heartbeat IPC: 2.26945 cumulative IPC: 2.18050 (Simulation time: 0 hr 7 min 15 sec) 
Heartbeat CPU  1 instructions:   41000000 cycles:   18438859 heartbeat IPC: 2.30145 cumulative IPC: 2.22356 (Simulation time: 0 hr 7 min 18 sec) 
Heartbeat CPU  3 instructions:   48000000 cycles:   18493148 heartbeat IPC: 2.59133 cumulative IPC: 2.59556 (Simulation time: 0 hr 7 min 19 sec) 
Heartbeat CPU  2 instructions:   48000000 cycles:   18519855 heartbeat IPC: 2.60399 cumulative IPC: 2.59181 (Simulation time: 0 hr 7 min 20 sec) 
Heartbeat CPU  0 instructions:   41000000 cycles:   18782749 heartbeat IPC: 2.28134 cumulative IPC: 2.18285 (Simulation time: 0 hr 7 min 26 sec) 
Heartbeat CPU  1 instructions:   42000000 cycles:   18864623 heartbeat IPC: 2.34872 cumulative IPC: 2.22639 (Simulation time: 0 hr 7 min 28 sec) 
Heartbeat CPU  3 instructions:   49000002 cycles:   18880251 heartbeat IPC: 2.58330 cumulative IPC: 2.59530 (Simulation time: 0 hr 7 min 29 sec) 
Heartbeat CPU  2 instructions:   49000000 cycles:   18899083 heartbeat IPC: 2.63694 cumulative IPC: 2.59272 (Simulation time: 0 hr 7 min 29 sec) 
Heartbeat CPU  0 instructions:   42000001 cycles:   19229274 heartbeat IPC: 2.23952 cumulative IPC: 2.18417 (Simulation time: 0 hr 7 min 37 sec) 
Heartbeat CPU  3 instructions:   50000002 cycles:   19266504 heartbeat IPC: 2.58898 cumulative IPC: 2.59518 (Simulation time: 0 hr 7 min 38 sec) 
Heartbeat CPU  2 instructions:   50000003 cycles:   19274651 heartbeat IPC: 2.66264 cumulative IPC: 2.59408 (Simulation time: 0 hr 7 min 38 sec) 
Heartbeat CPU  1 instructions:   43000003 cycles:   19329587 heartbeat IPC: 2.15071 cumulative IPC: 2.22457 (Simulation time: 0 hr 7 min 39 sec) 
Heartbeat CPU  3 instructions:   51000000 cycles:   19652335 heartbeat IPC: 2.59180 cumulative IPC: 0.05088 (Simulation time: 0 hr 7 min 46 sec) 
Heartbeat CPU  2 instructions:   51000000 cycles:   19664561 heartbeat IPC: 2.56469 cumulative IPC: 0.05085 (Simulation time: 0 hr 7 min 47 sec) 
Heartbeat CPU  0 instructions:   43000002 cycles:   19690988 heartbeat IPC: 2.16585 cumulative IPC: 2.18374 (Simulation time: 0 hr 7 min 47 sec) 
Heartbeat CPU  1 instructions:   44000000 cycles:   19774822 heartbeat IPC: 2.24600 cumulative IPC: 2.22505 (Simulation time: 0 hr 7 min 49 sec) 
Heartbeat CPU  3 instructions:   52000000 cycles:   20038715 heartbeat IPC: 2.58813 cumulative IPC: 0.09981 (Simulation time: 0 hr 7 min 55 sec) 
Heartbeat CPU  2 instructions:   52000000 cycles:   20070588 heartbeat IPC: 2.46289 cumulative IPC: 0.09965 (Simulation time: 0 hr 7 min 56 sec) 
Heartbeat CPU  0 instructions:   44000000 cycles:   20128230 heartbeat IPC: 2.28706 cumulative IPC: 2.18598 (Simulation time: 0 hr 7 min 57 sec) 
Heartbeat CPU  1 instructions:   45000000 cycles:   20208297 heartbeat IPC: 2.30694 cumulative IPC: 2.22681 (Simulation time: 0 hr 7 min 59 sec) 
Heartbeat CPU  3 instructions:   53000000 cycles:   20425842 heartbeat IPC: 2.58313 cumulative IPC: 0.14687 (Simulation time: 0 hr 8 min 5 sec) 
Heartbeat CPU  2 instructions:   53000003 cycles:   20473671 heartbeat IPC: 2.48089 cumulative IPC: 0.14653 (Simulation time: 0 hr 8 min 6 sec) 
Heartbeat CPU  0 instructions:   45000000 cycles:   20625270 heartbeat IPC: 2.01191 cumulative IPC: 2.18179 (Simulation time: 0 hr 8 min 10 sec) 
Heartbeat CPU  1 instructions:   46000002 cycles:   20653753 heartbeat IPC: 2.24490 cumulative IPC: 2.22720 (Simulation time: 0 hr 8 min 10 sec) 
Heartbeat CPU  3 instructions:   54000001 cycles:   20805259 heartbeat IPC: 2.63563 cumulative IPC: 0.19226 (Simulation time: 0 hr 8 min 14 sec) 
Heartbeat CPU  2 instructions:   54000000 cycles:   20863003 heartbeat IPC: 2.56849 cumulative IPC: 0.19173 (Simulation time: 0 hr 8 min 15 sec) 
Heartbeat CPU  0 instructions:   46000000 cycles:   21058219 heartbeat IPC: 2.30974 cumulative IPC: 2.18442 (Simulation time: 0 hr 8 min 20 sec) 
Heartbeat CPU  1 instructions:   47000001 cycles:   21102238 heartbeat IPC: 2.22973 cumulative IPC: 2.22725 (Simulation time: 0 hr 8 min 21 sec) 
Heartbeat CPU  3 instructions:   55000001 cycles:   21190332 heartbeat IPC: 2.59691 cumulative IPC: 0.23596 (Simulation time: 0 hr 8 min 23 sec) 
Heartbeat CPU  2 instructions:   55000002 cycles:   21244148 heartbeat IPC: 2.62368 cumulative IPC: 0.23536 (Simulation time: 0 hr 8 min 25 sec) 
Heartbeat CPU  0 instructions:   47000001 cycles:   21503154 heartbeat IPC: 2.24752 cumulative IPC: 2.18573 (Simulation time: 0 hr 8 min 31 sec) 
Heartbeat CPU  1 instructions:   48000000 cycles:   21531756 heartbeat IPC: 2.32819 cumulative IPC: 2.22927 (Simulation time: 0 hr 8 min 32 sec) 
Heartbeat CPU  3 instructions:   56000000 cycles:   21577308 heartbeat IPC: 2.58414 cumulative IPC: 0.27807 (Simulation time: 0 hr 8 min 33 sec) 
Heartbeat CPU  2 instructions:   56000000 cycles:   21625754 heartbeat IPC: 2.62050 cumulative IPC: 0.27745 (Simulation time: 0 hr 8 min 34 sec) 
Heartbeat CPU  0 instructions:   48000000 cycles:   21934339 heartbeat IPC: 2.31919 cumulative IPC: 2.18835 (Simulation time: 0 hr 8 min 41 sec) 
Heartbeat CPU  3 instructions:   57000001 cycles:   21965817 heartbeat IPC: 2.57395 cumulative IPC: 0.31868 (Simulation time: 0 hr 8 min 42 sec) 
Heartbeat CPU  2 instructions:   57000003 cycles:   22016539 heartbeat IPC: 2.55896 cumulative IPC: 0.31794 (Simulation time: 0 hr 8 min 43 sec) 
Heartbeat CPU  1 instructions:   49000001 cycles:   22020119 heartbeat IPC: 2.04766 cumulative IPC: 2.22524 (Simulation time: 0 hr 8 min 43 sec) 
Heartbeat CPU  3 instructions:   58000000 cycles:   22352563 heartbeat IPC: 2.58567 cumulative IPC: 0.35790 (Simulation time: 0 hr 8 min 51 sec) 
Heartbeat CPU  0 instructions:   49000000 cycles:   22371976 heartbeat IPC: 2.28500 cumulative IPC: 2.19024 (Simulation time: 0 hr 8 min 52 sec) 
Heartbeat CPU  2 instructions:   58000003 cycles:   22399225 heartbeat IPC: 2.61311 cumulative IPC: 0.35716 (Simulation time: 0 hr 8 min 52 sec) 
Heartbeat CPU  1 instructions:   50000002 cycles:   22449175 heartbeat IPC: 2.33070 cumulative IPC: 2.22725 (Simulation time: 0 hr 8 min 54 sec) 
Heartbeat CPU  3 instructions:   59000000 cycles:   22738090 heartbeat IPC: 2.59385 cumulative IPC: 0.39581 (Simulation time: 0 hr 9 min 0 sec) 
Heartbeat CPU  2 instructions:   59000002 cycles:   22781349 heartbeat IPC: 2.61695 cumulative IPC: 0.39506 (Simulation time: 0 hr 9 min 1 sec) 
Heartbeat CPU  1 instructions:   51000002 cycles:   22865351 heartbeat IPC: 2.40283 cumulative IPC: 0.04373 (Simulation time: 0 hr 9 min 3 sec) 
Heartbeat CPU  0 instructions:   50000002 cycles:   22976084 heartbeat IPC: 1.65534 cumulative IPC: 2.17618 (Simulation time: 0 hr 9 min 6 sec) 

Warmup complete CPU  0 instructions:   50000002 cycles:   22976084 (Simulation time: 0 hr 9 min 6 sec) 
Warmup complete CPU  1 instructions:   51263799 cycles:   22976083 (Simulation time: 0 hr 9 min 6 sec) 
Warmup complete CPU  2 instructions:   59509575 cycles:   22976083 (Simulation time: 0 hr 9 min 6 sec) 
Warmup complete CPU  3 instructions:   59620070 cycles:   22976084 (Simulation time: 0 hr 9 min 6 sec) 

Heartbeat CPU  3 instructions:   60000000 cycles:   25488880 heartbeat IPC: 0.36353 cumulative IPC: 0.15120 (Simulation time: 0 hr 9 min 11 sec) 
Heartbeat CPU  2 instructions:   60000000 cycles:   25623807 heartbeat IPC: 0.35181 cumulative IPC: 0.18523 (Simulation time: 0 hr 9 min 12 sec) 
Heartbeat CPU  1 instructions:   52000000 cycles:   29087695 heartbeat IPC: 0.16071 cumulative IPC: 0.12046 (Simulation time: 0 hr 9 min 19 sec) 
Heartbeat CPU  2 instructions:   61000000 cycles:   31311346 heartbeat IPC: 0.17582 cumulative IPC: 0.17881 (Simulation time: 0 hr 9 min 24 sec) 
Heartbeat CPU  0 instructions:   51000003 cycles:   31466568 heartbeat IPC: 0.11778 cumulative IPC: 0.11778 (Simulation time: 0 hr 9 min 24 sec) 
Heartbeat CPU  3 instructions:   61000003 cycles:   32101550 heartbeat IPC: 0.15123 cumulative IPC: 0.15122 (Simulation time: 0 hr 9 min 26 sec) 
Heartbeat CPU  2 instructions:   62000002 cycles:   36933766 heartbeat IPC: 0.17786 cumulative IPC: 0.17843 (Simulation time: 0 hr 9 min 36 sec) 
Heartbeat CPU  1 instructions:   53000003 cycles:   37353472 heartbeat IPC: 0.12098 cumulative IPC: 0.12076 (Simulation time: 0 hr 9 min 37 sec) 
Heartbeat CPU  3 instructions:   62000001 cycles:   38729652 heartbeat IPC: 0.15087 cumulative IPC: 0.15107 (Simulation time: 0 hr 9 min 40 sec) 
Heartbeat CPU  0 instructions:   52000000 cycles:   39953377 heartbeat IPC: 0.11783 cumulative IPC: 0.11780 (Simulation time: 0 hr 9 min 43 sec) 
Heartbeat CPU  2 instructions:   63000003 cycles:   42645467 heartbeat IPC: 0.17508 cumulative IPC: 0.17745 (Simulation time: 0 hr 9 min 49 sec) 
Heartbeat CPU  3 instructions:   63000000 cycles:   45368660 heartbeat IPC: 0.15062 cumulative IPC: 0.15094 (Simulation time: 0 hr 9 min 55 sec) 
Heartbeat CPU  1 instructions:   54000000 cycles:   45836802 heartbeat IPC: 0.11788 cumulative IPC: 0.11969 (Simulation time: 0 hr 9 min 56 sec) 
Heartbeat CPU  0 instructions:   53000001 cycles:   46777907 heartbeat IPC: 0.14653 cumulative IPC: 0.12604 (Simulation time: 0 hr 9 min 58 sec) 
Heartbeat CPU  2 instructions:   64000000 cycles:   48317017 heartbeat IPC: 0.17632 cumulative IPC: 0.17720 (Simulation time: 0 hr 10 min 2 sec) 
Heartbeat CPU  0 instructions:   54000001 cycles:   51264091 heartbeat IPC: 0.22291 cumulative IPC: 0.14140 (Simulation time: 0 hr 10 min 10 sec) 
Heartbeat CPU  3 instructions:   64000000 cycles:   52005074 heartbeat IPC: 0.15068 cumulative IPC: 0.15088 (Simulation time: 0 hr 10 min 11 sec) 
Heartbeat CPU  2 instructions:   65000003 cycles:   54051463 heartbeat IPC: 0.17439 cumulative IPC: 0.17668 (Simulation time: 0 hr 10 min 16 sec) 
Heartbeat CPU  1 instructions:   55000002 cycles:   54100702 heartbeat IPC: 0.12101 cumulative IPC: 0.12004 (Simulation time: 0 hr 10 min 16 sec) 
Heartbeat CPU  0 instructions:   55000003 cycles:   57767087 heartbeat IPC: 0.15378 cumulative IPC: 0.14372 (Simulation time: 0 hr 10 min 24 sec) 
Heartbeat CPU  3 instructions:   65000002 cycles:   58628149 heartbeat IPC: 0.15099 cumulative IPC: 0.15090 (Simulation time: 0 hr 10 min 26 sec) 
Heartbeat CPU  2 instructions:   66000001 cycles:   59856279 heartbeat IPC: 0.17227 cumulative IPC: 0.17599 (Simulation time: 0 hr 10 min 29 sec) 
Heartbeat CPU  1 instructions:   56000000 cycles:   62435798 heartbeat IPC: 0.11997 cumulative IPC: 0.12003 (Simulation time: 0 hr 10 min 34 sec) 
Heartbeat CPU  3 instructions:   66000003 cycles:   65237311 heartbeat IPC: 0.15131 cumulative IPC: 0.15096 (Simulation time: 0 hr 10 min 41 sec) 
Heartbeat CPU  2 instructions:   67000003 cycles:   65385168 heartbeat IPC: 0.18087 cumulative IPC: 0.17662 (Simulation time: 0 hr 10 min 41 sec) 
Heartbeat CPU  0 instructions:   56000000 cycles:   65890349 heartbeat IPC: 0.12310 cumulative IPC: 0.13981 (Simulation time: 0 hr 10 min 42 sec) 
Heartbeat CPU  1 instructions:   57000001 cycles:   69409476 heartbeat IPC: 0.14340 cumulative IPC: 0.12354 (Simulation time: 0 hr 10 min 50 sec) 
Heartbeat CPU  2 instructions:   68000000 cycles:   70852621 heartbeat IPC: 0.18290 cumulative IPC: 0.17734 (Simulation time: 0 hr 10 min 54 sec) 
Heartbeat CPU  3 instructions:   67000002 cycles:   71837769 heartbeat IPC: 0.15150 cumulative IPC: 0.15104 (Simulation time: 0 hr 10 min 56 sec) 
Heartbeat CPU  1 instructions:   58000001 cycles:   73988880 heartbeat IPC: 0.21837 cumulative IPC: 0.13205 (Simulation time: 0 hr 11 min 1 sec) 
Heartbeat CPU  0 instructions:   57000001 cycles:   74242831 heartbeat IPC: 0.11973 cumulative IPC: 0.13654 (Simulation time: 0 hr 11 min 2 sec) 
Heartbeat CPU  2 instructions:   69000002 cycles:   76624706 heartbeat IPC: 0.17325 cumulative IPC: 0.17690 (Simulation time: 0 hr 11 min 8 sec) 
Heartbeat CPU  3 instructions:   68000000 cycles:   78456067 heartbeat IPC: 0.15110 cumulative IPC: 0.15104 (Simulation time: 0 hr 11 min 12 sec) 
Heartbeat CPU  1 instructions:   59000003 cycles:   80290243 heartbeat IPC: 0.15870 cumulative IPC: 0.13498 (Simulation time: 0 hr 11 min 15 sec) 
Heartbeat CPU  2 instructions:   70000001 cycles:   82248807 heartbeat IPC: 0.17781 cumulative IPC: 0.17699 (Simulation time: 0 hr 11 min 19 sec) 
Heartbeat CPU  0 instructions:   58000001 cycles:   82527565 heartbeat IPC: 0.12070 cumulative IPC: 0.13434 (Simulation time: 0 hr 11 min 20 sec) 
Heartbeat CPU  3 instructions:   69000003 cycles:   85050910 heartbeat IPC: 0.15163 cumulative IPC: 0.15111 (Simulation time: 0 hr 11 min 25 sec) 
Heartbeat CPU  2 instructions:   71000003 cycles:   87678258 heartbeat IPC: 0.18418 cumulative IPC: 0.17759 (Simulation time: 0 hr 11 min 31 sec) 
Heartbeat CPU  1 instructions:   60000000 cycles:   88463970 heartbeat IPC: 0.12234 cumulative IPC: 0.13340 (Simulation time: 0 hr 11 min 33 sec) 
Heartbeat CPU  0 instructions:   59000003 cycles:   90900989 heartbeat IPC: 0.11943 cumulative IPC: 0.13250 (Simulation time: 0 hr 11 min 38 sec) 
Heartbeat CPU  3 instructions:   70000003 cycles:   91644009 heartbeat IPC: 0.15167 cumulative IPC: 0.15116 (Simulation time: 0 hr 11 min 40 sec) 
Heartbeat CPU  2 instructions:   72000000 cycles:   93397180 heartbeat IPC: 0.17486 cumulative IPC: 0.17737 (Simulation time: 0 hr 11 min 43 sec) 
Heartbeat CPU  1 instructions:   61000002 cycles:   96683723 heartbeat IPC: 0.12166 cumulative IPC: 0.13209 (Simulation time: 0 hr 11 min 51 sec) 
Heartbeat CPU  3 instructions:   71000001 cycles:   98236135 heartbeat IPC: 0.15170 cumulative IPC: 0.15121 (Simulation time: 0 hr 11 min 54 sec) 
Heartbeat CPU  2 instructions:   73000002 cycles:   98815320 heartbeat IPC: 0.18457 cumulative IPC: 0.17788 (Simulation time: 0 hr 11 min 55 sec) 
Heartbeat CPU  0 instructions:   60000000 cycles:   99212700 heartbeat IPC: 0.12031 cumulative IPC: 0.13117 (Simulation time: 0 hr 11 min 56 sec) 
Heartbeat CPU  2 instructions:   74000003 cycles:  104432324 heartbeat IPC: 0.17803 cumulative IPC: 0.17789 (Simulation time: 0 hr 12 min 7 sec) 
Heartbeat CPU  3 instructions:   72000000 cycles:  104828963 heartbeat IPC: 0.15168 cumulative IPC: 0.15125 (Simulation time: 0 hr 12 min 8 sec) 
Heartbeat CPU  1 instructions:   62000002 cycles:  104891815 heartbeat IPC: 0.12183 cumulative IPC: 0.13106 (Simulation time: 0 hr 12 min 8 sec) 
Heartbeat CPU  0 instructions:   61000000 cycles:  107586267 heartbeat IPC: 0.11942 cumulative IPC: 0.13001 (Simulation time: 0 hr 12 min 13 sec) 
Heartbeat CPU  2 instructions:   75000002 cycles:  110411721 heartbeat IPC: 0.16724 cumulative IPC: 0.17716 (Simulation time: 0 hr 12 min 19 sec) 
Heartbeat CPU  3 instructions:   73000000 cycles:  111418715 heartbeat IPC: 0.15175 cumulative IPC: 0.15128 (Simulation time: 0 hr 12 min 22 sec) 
Heartbeat CPU  1 instructions:   63000001 cycles:  113165237 heartbeat IPC: 0.12087 cumulative IPC: 0.13013 (Simulation time: 0 hr 12 min 25 sec) 
Heartbeat CPU  0 instructions:   62000003 cycles:  115983639 heartbeat IPC: 0.11909 cumulative IPC: 0.12902 (Simulation time: 0 hr 12 min 31 sec) 
Heartbeat CPU  2 instructions:   76000000 cycles:  116305457 heartbeat IPC: 0.16967 cumulative IPC: 0.17669 (Simulation time: 0 hr 12 min 32 sec) 
Heartbeat CPU  3 instructions:   74000000 cycles:  118004594 heartbeat IPC: 0.15184 cumulative IPC: 0.15132 (Simulation time: 0 hr 12 min 35 sec) 
Heartbeat CPU  1 instructions:   64000000 cycles:  121468643 heartbeat IPC: 0.12043 cumulative IPC: 0.12931 (Simulation time: 0 hr 12 min 42 sec) 
Heartbeat CPU  2 instructions:   77000002 cycles:  121875690 heartbeat IPC: 0.17953 cumulative IPC: 0.17685 (Simulation time: 0 hr 12 min 43 sec) 
Heartbeat CPU  0 instructions:   63000003 cycles:  124391686 heartbeat IPC: 0.11893 cumulative IPC: 0.12819 (Simulation time: 0 hr 12 min 49 sec) 
Heartbeat CPU  3 instructions:   75000000 cycles:  124626302 heartbeat IPC: 0.15102 cumulative IPC: 0.15130 (Simulation time: 0 hr 12 min 49 sec) 
Heartbeat CPU  2 instructions:   78000000 cycles:  127319889 heartbeat IPC: 0.18368 cumulative IPC: 0.17721 (Simulation time: 0 hr 12 min 55 sec) 
Heartbeat CPU  1 instructions:   65000002 cycles:  129688653 heartbeat IPC: 0.12165 cumulative IPC: 0.12872 (Simulation time: 0 hr 13 min 0 sec) 
Heartbeat CPU  3 instructions:   76000000 cycles:  131245362 heartbeat IPC: 0.15108 cumulative IPC: 0.15129 (Simulation time: 0 hr 13 min 3 sec) 
Heartbeat CPU  2 instructions:   79000001 cycles:  132795818 heartbeat IPC: 0.18262 cumulative IPC: 0.17748 (Simulation time: 0 hr 13 min 7 sec) 
Heartbeat CPU  0 instructions:   64000000 cycles:  132860815 heartbeat IPC: 0.11808 cumulative IPC: 0.12741 (Simulation time: 0 hr 13 min 7 sec) 
Heartbeat CPU  3 instructions:   77000000 cycles:  137855505 heartbeat IPC: 0.15128 cumulative IPC: 0.15129 (Simulation time: 0 hr 13 min 17 sec) 
Heartbeat CPU  1 instructions:   66000003 cycles:  137941520 heartbeat IPC: 0.12117 cumulative IPC: 0.12818 (Simulation time: 0 hr 13 min 18 sec) 
Heartbeat CPU  2 instructions:   80000000 cycles:  138228128 heartbeat IPC: 0.18408 cumulative IPC: 0.17779 (Simulation time: 0 hr 13 min 18 sec) 
Heartbeat CPU  0 instructions:   65000002 cycles:  141517700 heartbeat IPC: 0.11552 cumulative IPC: 0.12654 (Simulation time: 0 hr 13 min 26 sec) 
Heartbeat CPU  2 instructions:   81000000 cycles:  143823626 heartbeat IPC: 0.17872 cumulative IPC: 0.17783 (Simulation time: 0 hr 13 min 31 sec) 
Heartbeat CPU  3 instructions:   78000002 cycles:  144509317 heartbeat IPC: 0.15029 cumulative IPC: 0.15123 (Simulation time: 0 hr 13 min 32 sec) 
Heartbeat CPU  1 instructions:   67000000 cycles:  146270753 heartbeat IPC: 0.12006 cumulative IPC: 0.12763 (Simulation time: 0 hr 13 min 36 sec) 
Heartbeat CPU  2 instructions:   82000003 cycles:  149320550 heartbeat IPC: 0.18192 cumulative IPC: 0.17801 (Simulation time: 0 hr 13 min 42 sec) 
Heartbeat CPU  0 instructions:   66000003 cycles:  149982337 heartbeat IPC: 0.11814 cumulative IPC: 0.12598 (Simulation time: 0 hr 13 min 44 sec) 
Heartbeat CPU  3 instructions:   79000000 cycles:  151205323 heartbeat IPC: 0.14934 cumulative IPC: 0.15114 (Simulation time: 0 hr 13 min 47 sec) 
Heartbeat CPU  1 instructions:   68000000 cycles:  154534375 heartbeat IPC: 0.12101 cumulative IPC: 0.12722 (Simulation time: 0 hr 13 min 54 sec) 
Heartbeat CPU  2 instructions:   83000001 cycles:  154871434 heartbeat IPC: 0.18015 cumulative IPC: 0.17810 (Simulation time: 0 hr 13 min 54 sec) 
Heartbeat CPU  3 instructions:   80000000 cycles:  157925341 heartbeat IPC: 0.14881 cumulative IPC: 0.15102 (Simulation time: 0 hr 14 min 0 sec) 
Heartbeat CPU  0 instructions:   67000002 cycles:  158483112 heartbeat IPC: 0.11764 cumulative IPC: 0.12545 (Simulation time: 0 hr 14 min 1 sec) 
Heartbeat CPU  2 instructions:   84000000 cycles:  160465723 heartbeat IPC: 0.17875 cumulative IPC: 0.17813 (Simulation time: 0 hr 14 min 5 sec) 
Heartbeat CPU  1 instructions:   69000000 cycles:  163030147 heartbeat IPC: 0.11771 cumulative IPC: 0.12664 (Simulation time: 0 hr 14 min 11 sec) 
Heartbeat CPU  0 instructions:   68000000 cycles:  164140670 heartbeat IPC: 0.17675 cumulative IPC: 0.12751 (Simulation time: 0 hr 14 min 14 sec) 
Heartbeat CPU  3 instructions:   81000003 cycles:  164626438 heartbeat IPC: 0.14923 cumulative IPC: 0.15093 (Simulation time: 0 hr 14 min 15 sec) 
Heartbeat CPU  2 instructions:   85000001 cycles:  165976771 heartbeat IPC: 0.18145 cumulative IPC: 0.17825 (Simulation time: 0 hr 14 min 19 sec) 
Heartbeat CPU  0 instructions:   69000000 cycles:  168984343 heartbeat IPC: 0.20645 cumulative IPC: 0.13013 (Simulation time: 0 hr 14 min 26 sec) 
Heartbeat CPU  1 instructions:   70000001 cycles:  171299072 heartbeat IPC: 0.12093 cumulative IPC: 0.12632 (Simulation time: 0 hr 14 min 31 sec) 
Heartbeat CPU  3 instructions:   82000001 cycles:  171358570 heartbeat IPC: 0.14854 cumulative IPC: 0.15083 (Simulation time: 0 hr 14 min 32 sec) 
Heartbeat CPU  2 instructions:   86000003 cycles:  171728444 heartbeat IPC: 0.17386 cumulative IPC: 0.17808 (Simulation time: 0 hr 14 min 32 sec) 
Heartbeat CPU  0 instructions:   70000003 cycles:  176413849 heartbeat IPC: 0.13460 cumulative IPC: 0.13035 (Simulation time: 0 hr 14 min 43 sec) 
Heartbeat CPU  2 instructions:   87000003 cycles:  177279228 heartbeat IPC: 0.18015 cumulative IPC: 0.17816 (Simulation time: 0 hr 14 min 44 sec) 
Heartbeat CPU  3 instructions:   83000001 cycles:  178072541 heartbeat IPC: 0.14894 cumulative IPC: 0.15074 (Simulation time: 0 hr 14 min 46 sec) 
Heartbeat CPU  1 instructions:   71000002 cycles:  179656246 heartbeat IPC: 0.11966 cumulative IPC: 0.12596 (Simulation time: 0 hr 14 min 50 sec) 
Heartbeat CPU  2 instructions:   88000000 cycles:  182502699 heartbeat IPC: 0.19144 cumulative IPC: 0.17859 (Simulation time: 0 hr 14 min 56 sec) 
Heartbeat CPU  3 instructions:   84000000 cycles:  184801181 heartbeat IPC: 0.14862 cumulative IPC: 0.15066 (Simulation time: 0 hr 15 min 1 sec) 
Heartbeat CPU  0 instructions:   71000002 cycles:  184815603 heartbeat IPC: 0.11902 cumulative IPC: 0.12976 (Simulation time: 0 hr 15 min 1 sec) 
Heartbeat CPU  1 instructions:   72000000 cycles:  185730748 heartbeat IPC: 0.16462 cumulative IPC: 0.12741 (Simulation time: 0 hr 15 min 4 sec) 
Heartbeat CPU  2 instructions:   89000002 cycles:  188163697 heartbeat IPC: 0.17665 cumulative IPC: 0.17853 (Simulation time: 0 hr 15 min 10 sec) 
Heartbeat CPU  1 instructions:   73000001 cycles:  190425151 heartbeat IPC: 0.21302 cumulative IPC: 0.12981 (Simulation time: 0 hr 15 min 15 sec) 
Heartbeat CPU  3 instructions:   85000001 cycles:  191545509 heartbeat IPC: 0.14827 cumulative IPC: 0.15056 (Simulation time: 0 hr 15 min 17 sec) 
Heartbeat CPU  0 instructions:   72000000 cycles:  193206314 heartbeat IPC: 0.11918 cumulative IPC: 0.12924 (Simulation time: 0 hr 15 min 21 sec) 
Heartbeat CPU  2 instructions:   90000003 cycles:  193731921 heartbeat IPC: 0.17959 cumulative IPC: 0.17856 (Simulation time: 0 hr 15 min 22 sec) 
Heartbeat CPU  1 instructions:   74000003 cycles:  197499482 heartbeat IPC: 0.14136 cumulative IPC: 0.13028 (Simulation time: 0 hr 15 min 30 sec) 
Heartbeat CPU  3 instructions:   86000003 cycles:  198271219 heartbeat IPC: 0.14868 cumulative IPC: 0.15049 (Simulation time: 0 hr 15 min 31 sec) 
Heartbeat CPU  2 instructions:   91000001 cycles:  199594978 heartbeat IPC: 0.17056 cumulative IPC: 0.17830 (Simulation time: 0 hr 15 min 34 sec) 
Heartbeat CPU  0 instructions:   73000001 cycles:  201615992 heartbeat IPC: 0.11891 cumulative IPC: 0.12875 (Simulation time: 0 hr 15 min 38 sec) 
Heartbeat CPU  3 instructions:   87000002 cycles:  204993630 heartbeat IPC: 0.14876 cumulative IPC: 0.15042 (Simulation time: 0 hr 15 min 44 sec) 
Heartbeat CPU  2 instructions:   92000000 cycles:  205349162 heartbeat IPC: 0.17379 cumulative IPC: 0.17815 (Simulation time: 0 hr 15 min 45 sec) 
Heartbeat CPU  1 instructions:   75000001 cycles:  205648227 heartbeat IPC: 0.12272 cumulative IPC: 0.12994 (Simulation time: 0 hr 15 min 46 sec) 
Heartbeat CPU  0 instructions:   74000003 cycles:  210062598 heartbeat IPC: 0.11839 cumulative IPC: 0.12828 (Simulation time: 0 hr 15 min 55 sec) 
Heartbeat CPU  2 instructions:   93000002 cycles:  210961975 heartbeat IPC: 0.17816 cumulative IPC: 0.17815 (Simulation time: 0 hr 15 min 57 sec) 
Heartbeat CPU  3 instructions:   88000000 cycles:  211738618 heartbeat IPC: 0.14826 cumulative IPC: 0.15035 (Simulation time: 0 hr 15 min 59 sec) 
Heartbeat CPU  1 instructions:   76000000 cycles:  213834432 heartbeat IPC: 0.12216 cumulative IPC: 0.12961 (Simulation time: 0 hr 16 min 3 sec) 
Heartbeat CPU  2 instructions:   94000000 cycles:  216550221 heartbeat IPC: 0.17895 cumulative IPC: 0.17818 (Simulation time: 0 hr 16 min 9 sec) 
Heartbeat CPU  0 instructions:   75000002 cycles:  218443471 heartbeat IPC: 0.11932 cumulative IPC: 0.12790 (Simulation time: 0 hr 16 min 13 sec) 
Heartbeat CPU  3 instructions:   89000002 cycles:  218463670 heartbeat IPC: 0.14870 cumulative IPC: 0.15029 (Simulation time: 0 hr 16 min 13 sec) 
Heartbeat CPU  1 instructions:   77000001 cycles:  222085689 heartbeat IPC: 0.12119 cumulative IPC: 0.12926 (Simulation time: 0 hr 16 min 21 sec) 
Heartbeat CPU  2 instructions:   95000003 cycles:  222281030 heartbeat IPC: 0.17450 cumulative IPC: 0.17807 (Simulation time: 0 hr 16 min 21 sec) 
Heartbeat CPU  3 instructions:   90000003 cycles:  225203982 heartbeat IPC: 0.14836 cumulative IPC: 0.15023 (Simulation time: 0 hr 16 min 28 sec) 
Heartbeat CPU  0 instructions:   76000000 cycles:  226875771 heartbeat IPC: 0.11859 cumulative IPC: 0.12751 (Simulation time: 0 hr 16 min 31 sec) 
Heartbeat CPU  2 instructions:   96000000 cycles:  227683082 heartbeat IPC: 0.18511 cumulative IPC: 0.17826 (Simulation time: 0 hr 16 min 33 sec) 
Heartbeat CPU  1 instructions:   78000000 cycles:  230390575 heartbeat IPC: 0.12041 cumulative IPC: 0.12890 (Simulation time: 0 hr 16 min 39 sec) 
Heartbeat CPU  3 instructions:   91000002 cycles:  231923510 heartbeat IPC: 0.14882 cumulative IPC: 0.15018 (Simulation time: 0 hr 16 min 43 sec) 
Heartbeat CPU  2 instructions:   97000000 cycles:  233155323 heartbeat IPC: 0.18274 cumulative IPC: 0.17837 (Simulation time: 0 hr 16 min 45 sec) 
Heartbeat CPU  0 instructions:   77000003 cycles:  235351501 heartbeat IPC: 0.11798 cumulative IPC: 0.12713 (Simulation time: 0 hr 16 min 50 sec) 
Heartbeat CPU  1 instructions:   79000003 cycles:  238622785 heartbeat IPC: 0.12147 cumulative IPC: 0.12862 (Simulation time: 0 hr 16 min 56 sec) 
Heartbeat CPU  3 instructions:   92000000 cycles:  238641298 heartbeat IPC: 0.14886 cumulative IPC: 0.15014 (Simulation time: 0 hr 16 min 56 sec) 
Heartbeat CPU  2 instructions:   98000000 cycles:  238706604 heartbeat IPC: 0.18014 cumulative IPC: 0.17842 (Simulation time: 0 hr 16 min 56 sec) 
Heartbeat CPU  0 instructions:   78000001 cycles:  243841005 heartbeat IPC: 0.11779 cumulative IPC: 0.12677 (Simulation time: 0 hr 17 min 8 sec) 
Heartbeat CPU  2 instructions:   99000002 cycles:  244214083 heartbeat IPC: 0.18157 cumulative IPC: 0.17850 (Simulation time: 0 hr 17 min 8 sec) 
Heartbeat CPU  3 instructions:   93000002 cycles:  245359614 heartbeat IPC: 0.14885 cumulative IPC: 0.15010 (Simulation time: 0 hr 17 min 11 sec) 
Heartbeat CPU  1 instructions:   80000000 cycles:  246842015 heartbeat IPC: 0.12167 cumulative IPC: 0.12836 (Simulation time: 0 hr 17 min 14 sec) 
*** Reached end of trace for Core: 2 Repeating trace: /data3/CLOUD9/traces/cloud9_phase4_core2.trace.xz
Heartbeat CPU  2 instructions:  100000000 cycles:  249633425 heartbeat IPC: 0.18452 cumulative IPC: 0.17864 (Simulation time: 0 hr 17 min 20 sec) 
Heartbeat CPU  3 instructions:   94000002 cycles:  252087095 heartbeat IPC: 0.14864 cumulative IPC: 0.15006 (Simulation time: 0 hr 17 min 25 sec) 
Heartbeat CPU  0 instructions:   79000001 cycles:  252584723 heartbeat IPC: 0.11437 cumulative IPC: 0.12630 (Simulation time: 0 hr 17 min 26 sec) 
Heartbeat CPU  1 instructions:   81000003 cycles:  255091603 heartbeat IPC: 0.12122 cumulative IPC: 0.12811 (Simulation time: 0 hr 17 min 32 sec) 
Heartbeat CPU  2 instructions:  101000001 cycles:  255223754 heartbeat IPC: 0.17888 cumulative IPC: 0.17865 (Simulation time: 0 hr 17 min 32 sec) 
Heartbeat CPU  3 instructions:   95000003 cycles:  258801288 heartbeat IPC: 0.14894 cumulative IPC: 0.15003 (Simulation time: 0 hr 17 min 40 sec) 
Heartbeat CPU  2 instructions:  102000000 cycles:  260921030 heartbeat IPC: 0.17552 cumulative IPC: 0.17857 (Simulation time: 0 hr 17 min 44 sec) 
Heartbeat CPU  0 instructions:   80000000 cycles:  261046408 heartbeat IPC: 0.11818 cumulative IPC: 0.12601 (Simulation time: 0 hr 17 min 44 sec) 
Heartbeat CPU  1 instructions:   82000000 cycles:  263361511 heartbeat IPC: 0.12092 cumulative IPC: 0.12786 (Simulation time: 0 hr 17 min 49 sec) 
Heartbeat CPU  3 instructions:   96000000 cycles:  265476412 heartbeat IPC: 0.14981 cumulative IPC: 0.15002 (Simulation time: 0 hr 17 min 54 sec) 
Heartbeat CPU  2 instructions:  103000003 cycles:  266487411 heartbeat IPC: 0.17965 cumulative IPC: 0.17860 (Simulation time: 0 hr 17 min 56 sec) 
Heartbeat CPU  0 instructions:   81000001 cycles:  269525897 heartbeat IPC: 0.11793 cumulative IPC: 0.12574 (Simulation time: 0 hr 18 min 3 sec) 
Heartbeat CPU  1 instructions:   83000000 cycles:  271656609 heartbeat IPC: 0.12055 cumulative IPC: 0.12762 (Simulation time: 0 hr 18 min 7 sec) 
Heartbeat CPU  3 instructions:   97000003 cycles:  272170073 heartbeat IPC: 0.14940 cumulative IPC: 0.15000 (Simulation time: 0 hr 18 min 8 sec) 
Heartbeat CPU  2 instructions:  104000000 cycles:  272196793 heartbeat IPC: 0.17515 cumulative IPC: 0.17852 (Simulation time: 0 hr 18 min 8 sec) 
Heartbeat CPU  2 instructions:  105000003 cycles:  277768646 heartbeat IPC: 0.17947 cumulative IPC: 0.17854 (Simulation time: 0 hr 18 min 20 sec) 
Heartbeat CPU  0 instructions:   82000000 cycles:  278006837 heartbeat IPC: 0.11791 cumulative IPC: 0.12548 (Simulation time: 0 hr 18 min 20 sec) 
Heartbeat CPU  3 instructions:   98000000 cycles:  278864981 heartbeat IPC: 0.14937 cumulative IPC: 0.14999 (Simulation time: 0 hr 18 min 22 sec) 
Heartbeat CPU  1 instructions:   84000000 cycles:  280140795 heartbeat IPC: 0.11787 cumulative IPC: 0.12730 (Simulation time: 0 hr 18 min 25 sec) 
Heartbeat CPU  0 instructions:   83000003 cycles:  282497718 heartbeat IPC: 0.22267 cumulative IPC: 0.12716 (Simulation time: 0 hr 18 min 31 sec) 
Heartbeat CPU  2 instructions:  106000002 cycles:  283544772 heartbeat IPC: 0.17313 cumulative IPC: 0.17842 (Simulation time: 0 hr 18 min 34 sec) 
Heartbeat CPU  3 instructions:   99000002 cycles:  285560389 heartbeat IPC: 0.14936 cumulative IPC: 0.14997 (Simulation time: 0 hr 18 min 39 sec) 
Heartbeat CPU  0 instructions:   84000000 cycles:  287713307 heartbeat IPC: 0.19173 cumulative IPC: 0.12843 (Simulation time: 0 hr 18 min 44 sec) 
Heartbeat CPU  1 instructions:   85000000 cycles:  288448933 heartbeat IPC: 0.12036 cumulative IPC: 0.12708 (Simulation time: 0 hr 18 min 45 sec) 
Heartbeat CPU  2 instructions:  107000001 cycles:  289232812 heartbeat IPC: 0.17581 cumulative IPC: 0.17836 (Simulation time: 0 hr 18 min 47 sec) 
*** Reached end of trace for Core: 3 Repeating trace: /data3/CLOUD9/traces/cloud9_phase4_core3.trace.xz
Heartbeat CPU  3 instructions:  100000000 cycles:  292279442 heartbeat IPC: 0.14883 cumulative IPC: 0.14994 (Simulation time: 0 hr 18 min 53 sec) 
Heartbeat CPU  2 instructions:  108000000 cycles:  295137261 heartbeat IPC: 0.16936 cumulative IPC: 0.17817 (Simulation time: 0 hr 18 min 59 sec) 
Heartbeat CPU  0 instructions:   85000000 cycles:  295730214 heartbeat IPC: 0.12474 cumulative IPC: 0.12832 (Simulation time: 0 hr 19 min 1 sec) 
Heartbeat CPU  1 instructions:   86000003 cycles:  296806362 heartbeat IPC: 0.11965 cumulative IPC: 0.12685 (Simulation time: 0 hr 19 min 3 sec) 
Heartbeat CPU  3 instructions:  101000002 cycles:  299440497 heartbeat IPC: 0.13964 cumulative IPC: 0.14968 (Simulation time: 0 hr 19 min 9 sec) 
Heartbeat CPU  2 instructions:  109000003 cycles:  301068095 heartbeat IPC: 0.16861 cumulative IPC: 0.17796 (Simulation time: 0 hr 19 min 12 sec) 
Heartbeat CPU  1 instructions:   87000002 cycles:  302021998 heartbeat IPC: 0.19173 cumulative IPC: 0.12807 (Simulation time: 0 hr 19 min 15 sec) 
Heartbeat CPU  0 instructions:   86000002 cycles:  304040154 heartbeat IPC: 0.12034 cumulative IPC: 0.12808 (Simulation time: 0 hr 19 min 19 sec) 
Heartbeat CPU  3 instructions:  102000001 cycles:  306609581 heartbeat IPC: 0.13949 cumulative IPC: 0.14942 (Simulation time: 0 hr 19 min 25 sec) 
Heartbeat CPU  1 instructions:   88000000 cycles:  307019048 heartbeat IPC: 0.20012 cumulative IPC: 0.12933 (Simulation time: 0 hr 19 min 26 sec) 
Heartbeat CPU  2 instructions:  110000000 cycles:  307030319 heartbeat IPC: 0.16772 cumulative IPC: 0.17775 (Simulation time: 0 hr 19 min 26 sec) 
Heartbeat CPU  0 instructions:   87000001 cycles:  312424593 heartbeat IPC: 0.11927 cumulative IPC: 0.12783 (Simulation time: 0 hr 19 min 38 sec) 
Heartbeat CPU  2 instructions:  111000002 cycles:  312862651 heartbeat IPC: 0.17146 cumulative IPC: 0.17762 (Simulation time: 0 hr 19 min 39 sec) 
Heartbeat CPU  3 instructions:  103000002 cycles:  313785142 heartbeat IPC: 0.13936 cumulative IPC: 0.14917 (Simulation time: 0 hr 19 min 41 sec) 
Heartbeat CPU  1 instructions:   89000003 cycles:  314658573 heartbeat IPC: 0.13090 cumulative IPC: 0.12937 (Simulation time: 0 hr 19 min 43 sec) 
Heartbeat CPU  2 instructions:  112000000 cycles:  318888073 heartbeat IPC: 0.16596 cumulative IPC: 0.17739 (Simulation time: 0 hr 19 min 51 sec) 
Heartbeat CPU  0 instructions:   88000000 cycles:  320857077 heartbeat IPC: 0.11859 cumulative IPC: 0.12757 (Simulation time: 0 hr 19 min 55 sec) 
Heartbeat CPU  3 instructions:  104000000 cycles:  320955163 heartbeat IPC: 0.13947 cumulative IPC: 0.14894 (Simulation time: 0 hr 19 min 55 sec) 
Heartbeat CPU  1 instructions:   90000003 cycles:  322862585 heartbeat IPC: 0.12189 cumulative IPC: 0.12917 (Simulation time: 0 hr 19 min 59 sec) 
Heartbeat CPU  2 instructions:  113000002 cycles:  324496285 heartbeat IPC: 0.17831 cumulative IPC: 0.17740 (Simulation time: 0 hr 20 min 3 sec) 
Heartbeat CPU  3 instructions:  105000003 cycles:  328135300 heartbeat IPC: 0.13927 cumulative IPC: 0.14871 (Simulation time: 0 hr 20 min 10 sec) 
Heartbeat CPU  0 instructions:   89000003 cycles:  329261621 heartbeat IPC: 0.11898 cumulative IPC: 0.12733 (Simulation time: 0 hr 20 min 12 sec) 
Heartbeat CPU  2 instructions:  114000002 cycles:  330011425 heartbeat IPC: 0.18132 cumulative IPC: 0.17747 (Simulation time: 0 hr 20 min 14 sec) 
Heartbeat CPU  1 instructions:   91000002 cycles:  331132531 heartbeat IPC: 0.12092 cumulative IPC: 0.12895 (Simulation time: 0 hr 20 min 16 sec) 
Heartbeat CPU  3 instructions:  106000002 cycles:  335270789 heartbeat IPC: 0.14014 cumulative IPC: 0.14851 (Simulation time: 0 hr 20 min 25 sec) 
Heartbeat CPU  2 instructions:  115000003 cycles:  335537704 heartbeat IPC: 0.18095 cumulative IPC: 0.17753 (Simulation time: 0 hr 20 min 26 sec) 
Heartbeat CPU  0 instructions:   90000001 cycles:  337638437 heartbeat IPC: 0.11938 cumulative IPC: 0.12712 (Simulation time: 0 hr 20 min 30 sec) 
Heartbeat CPU  1 instructions:   92000000 cycles:  339449352 heartbeat IPC: 0.12024 cumulative IPC: 0.12872 (Simulation time: 0 hr 20 min 34 sec) 
Heartbeat CPU  2 instructions:  116000000 cycles:  341047860 heartbeat IPC: 0.18148 cumulative IPC: 0.17760 (Simulation time: 0 hr 20 min 37 sec) 
Heartbeat CPU  3 instructions:  107000003 cycles:  342439000 heartbeat IPC: 0.13950 cumulative IPC: 0.14831 (Simulation time: 0 hr 20 min 40 sec) 
Heartbeat CPU  0 instructions:   91000000 cycles:  346092617 heartbeat IPC: 0.11828 cumulative IPC: 0.12689 (Simulation time: 0 hr 20 min 48 sec) 
Heartbeat CPU  2 instructions:  117000002 cycles:  346510834 heartbeat IPC: 0.18305 cumulative IPC: 0.17769 (Simulation time: 0 hr 20 min 49 sec) 
Heartbeat CPU  1 instructions:   93000002 cycles:  347688795 heartbeat IPC: 0.12137 cumulative IPC: 0.12853 (Simulation time: 0 hr 20 min 51 sec) 
Heartbeat CPU  3 instructions:  108000000 cycles:  349601898 heartbeat IPC: 0.13961 cumulative IPC: 0.14812 (Simulation time: 0 hr 20 min 55 sec) 
Heartbeat CPU  2 instructions:  118000003 cycles:  352073691 heartbeat IPC: 0.17976 cumulative IPC: 0.17773 (Simulation time: 0 hr 21 min 1 sec) 
Heartbeat CPU  0 instructions:   92000000 cycles:  354596774 heartbeat IPC: 0.11759 cumulative IPC: 0.12665 (Simulation time: 0 hr 21 min 6 sec) 
Heartbeat CPU  1 instructions:   94000001 cycles:  356128989 heartbeat IPC: 0.11848 cumulative IPC: 0.12828 (Simulation time: 0 hr 21 min 9 sec) 
Heartbeat CPU  3 instructions:  109000002 cycles:  356784440 heartbeat IPC: 0.13923 cumulative IPC: 0.14793 (Simulation time: 0 hr 21 min 10 sec) 
Heartbeat CPU  2 instructions:  119000002 cycles:  357690052 heartbeat IPC: 0.17805 cumulative IPC: 0.17774 (Simulation time: 0 hr 21 min 12 sec) 
Heartbeat CPU  0 instructions:   93000003 cycles:  363077596 heartbeat IPC: 0.11791 cumulative IPC: 0.12643 (Simulation time: 0 hr 21 min 23 sec) 
Heartbeat CPU  2 instructions:  120000000 cycles:  363531621 heartbeat IPC: 0.17119 cumulative IPC: 0.17762 (Simulation time: 0 hr 21 min 23 sec) 
Heartbeat CPU  3 instructions:  110000003 cycles:  363987249 heartbeat IPC: 0.13883 cumulative IPC: 0.14774 (Simulation time: 0 hr 21 min 24 sec) 
Heartbeat CPU  1 instructions:   95000003 cycles:  364440163 heartbeat IPC: 0.12032 cumulative IPC: 0.12808 (Simulation time: 0 hr 21 min 25 sec) 
Heartbeat CPU  2 instructions:  121000000 cycles:  369039934 heartbeat IPC: 0.18154 cumulative IPC: 0.17769 (Simulation time: 0 hr 21 min 35 sec) 
Heartbeat CPU  3 instructions:  111000002 cycles:  371167726 heartbeat IPC: 0.13927 cumulative IPC: 0.14756 (Simulation time: 0 hr 21 min 39 sec) 
Heartbeat CPU  0 instructions:   94000001 cycles:  371793525 heartbeat IPC: 0.11473 cumulative IPC: 0.12614 (Simulation time: 0 hr 21 min 40 sec) 
Heartbeat CPU  1 instructions:   96000000 cycles:  372784895 heartbeat IPC: 0.11984 cumulative IPC: 0.12789 (Simulation time: 0 hr 21 min 42 sec) 
Heartbeat CPU  2 instructions:  122000003 cycles:  374832303 heartbeat IPC: 0.17264 cumulative IPC: 0.17760 (Simulation time: 0 hr 21 min 47 sec) 
Heartbeat CPU  3 instructions:  112000000 cycles:  378330908 heartbeat IPC: 0.13960 cumulative IPC: 0.14740 (Simulation time: 0 hr 21 min 54 sec) 
Heartbeat CPU  0 instructions:   95000002 cycles:  380276602 heartbeat IPC: 0.11788 cumulative IPC: 0.12594 (Simulation time: 0 hr 21 min 58 sec) 
Heartbeat CPU  2 instructions:  123000000 cycles:  380587100 heartbeat IPC: 0.17377 cumulative IPC: 0.17754 (Simulation time: 0 hr 21 min 59 sec) 
Heartbeat CPU  1 instructions:   97000000 cycles:  381124934 heartbeat IPC: 0.11990 cumulative IPC: 0.12770 (Simulation time: 0 hr 22 min 0 sec) 
Heartbeat CPU  3 instructions:  113000000 cycles:  385500610 heartbeat IPC: 0.13948 cumulative IPC: 0.14725 (Simulation time: 0 hr 22 min 10 sec) 
Heartbeat CPU  2 instructions:  124000000 cycles:  385888546 heartbeat IPC: 0.18863 cumulative IPC: 0.17770 (Simulation time: 0 hr 22 min 10 sec) 
Heartbeat CPU  0 instructions:   96000000 cycles:  388793720 heartbeat IPC: 0.11741 cumulative IPC: 0.12575 (Simulation time: 0 hr 22 min 16 sec) 
Heartbeat CPU  1 instructions:   98000002 cycles:  389675205 heartbeat IPC: 0.11696 cumulative IPC: 0.12745 (Simulation time: 0 hr 22 min 18 sec) 
Heartbeat CPU  2 instructions:  125000001 cycles:  391337566 heartbeat IPC: 0.18352 cumulative IPC: 0.17779 (Simulation time: 0 hr 22 min 21 sec) 
Heartbeat CPU  3 instructions:  114000001 cycles:  392667812 heartbeat IPC: 0.13952 cumulative IPC: 0.14710 (Simulation time: 0 hr 22 min 24 sec) 
Heartbeat CPU  0 instructions:   97000003 cycles:  396169092 heartbeat IPC: 0.13559 cumulative IPC: 0.12594 (Simulation time: 0 hr 22 min 31 sec) 
Heartbeat CPU  2 instructions:  126000002 cycles:  397034869 heartbeat IPC: 0.17552 cumulative IPC: 0.17775 (Simulation time: 0 hr 22 min 34 sec) 
Heartbeat CPU  1 instructions:   99000000 cycles:  397938996 heartbeat IPC: 0.12101 cumulative IPC: 0.12731 (Simulation time: 0 hr 22 min 36 sec) 
Heartbeat CPU  3 instructions:  115000000 cycles:  399835554 heartbeat IPC: 0.13951 cumulative IPC: 0.14695 (Simulation time: 0 hr 22 min 40 sec) 
Heartbeat CPU  0 instructions:   98000000 cycles:  400620521 heartbeat IPC: 0.22465 cumulative IPC: 0.12710 (Simulation time: 0 hr 22 min 42 sec) 
Heartbeat CPU  2 instructions:  127000003 cycles:  402665938 heartbeat IPC: 0.17759 cumulative IPC: 0.17775 (Simulation time: 0 hr 22 min 47 sec) 
*** Reached end of trace for Core: 1 Repeating trace: /data3/CLOUD9/traces/cloud9_phase4_core1.trace.xz
Heartbeat CPU  1 instructions:  100000000 cycles:  406316193 heartbeat IPC: 0.11937 cumulative IPC: 0.12714 (Simulation time: 0 hr 22 min 55 sec) 
Heartbeat CPU  0 instructions:   99000001 cycles:  406729251 heartbeat IPC: 0.16370 cumulative IPC: 0.12769 (Simulation time: 0 hr 22 min 56 sec) 
Heartbeat CPU  3 instructions:  116000000 cycles:  407057583 heartbeat IPC: 0.13847 cumulative IPC: 0.14679 (Simulation time: 0 hr 22 min 57 sec) 
Heartbeat CPU  2 instructions:  128000000 cycles:  408162969 heartbeat IPC: 0.18192 cumulative IPC: 0.17781 (Simulation time: 0 hr 22 min 59 sec) 
Heartbeat CPU  2 instructions:  129000000 cycles:  413623570 heartbeat IPC: 0.18313 cumulative IPC: 0.17789 (Simulation time: 0 hr 23 min 11 sec) 
Heartbeat CPU  3 instructions:  117000000 cycles:  414245409 heartbeat IPC: 0.13912 cumulative IPC: 0.14665 (Simulation time: 0 hr 23 min 12 sec) 
Heartbeat CPU  1 instructions:  101000001 cycles:  414545978 heartbeat IPC: 0.12151 cumulative IPC: 0.12702 (Simulation time: 0 hr 23 min 12 sec) 
*** Reached end of trace for Core: 0 Repeating trace: /data3/CLOUD9/traces/cloud9_phase4_core0.trace.xz
Heartbeat CPU  0 instructions:  100000000 cycles:  415048464 heartbeat IPC: 0.12020 cumulative IPC: 0.12753 (Simulation time: 0 hr 23 min 13 sec) 
Heartbeat CPU  2 instructions:  130000001 cycles:  419347308 heartbeat IPC: 0.17471 cumulative IPC: 0.17784 (Simulation time: 0 hr 23 min 22 sec) 
Heartbeat CPU  3 instructions:  118000000 cycles:  421463334 heartbeat IPC: 0.13854 cumulative IPC: 0.14650 (Simulation time: 0 hr 23 min 26 sec) 
Heartbeat CPU  1 instructions:  102000002 cycles:  422858221 heartbeat IPC: 0.12030 cumulative IPC: 0.12688 (Simulation time: 0 hr 23 min 29 sec) 
Heartbeat CPU  0 instructions:  101000003 cycles:  423401755 heartbeat IPC: 0.11971 cumulative IPC: 0.12736 (Simulation time: 0 hr 23 min 30 sec) 
Heartbeat CPU  2 instructions:  131000000 cycles:  424840361 heartbeat IPC: 0.18205 cumulative IPC: 0.17790 (Simulation time: 0 hr 23 min 33 sec) 
Heartbeat CPU  3 instructions:  119000003 cycles:  428719369 heartbeat IPC: 0.13782 cumulative IPC: 0.14635 (Simulation time: 0 hr 23 min 41 sec) 
Heartbeat CPU  2 instructions:  132000000 cycles:  430195614 heartbeat IPC: 0.18673 cumulative IPC: 0.17801 (Simulation time: 0 hr 23 min 44 sec) 
Heartbeat CPU  1 instructions:  103000003 cycles:  431141048 heartbeat IPC: 0.12073 cumulative IPC: 0.12675 (Simulation time: 0 hr 23 min 46 sec) 
Heartbeat CPU  0 instructions:  102000002 cycles:  431758734 heartbeat IPC: 0.11966 cumulative IPC: 0.12721 (Simulation time: 0 hr 23 min 47 sec) 
Heartbeat CPU  2 instructions:  133000001 cycles:  435865726 heartbeat IPC: 0.17636 cumulative IPC: 0.17799 (Simulation time: 0 hr 23 min 56 sec) 
Heartbeat CPU  3 instructions:  120000000 cycles:  435959440 heartbeat IPC: 0.13812 cumulative IPC: 0.14620 (Simulation time: 0 hr 23 min 56 sec) 
Heartbeat CPU  1 instructions:  104000000 cycles:  439471128 heartbeat IPC: 0.12005 cumulative IPC: 0.12662 (Simulation time: 0 hr 24 min 4 sec) 
Heartbeat CPU  0 instructions:  103000003 cycles:  440150722 heartbeat IPC: 0.11916 cumulative IPC: 0.12705 (Simulation time: 0 hr 24 min 5 sec) 
Heartbeat CPU  2 instructions:  134000003 cycles:  441619363 heartbeat IPC: 0.17380 cumulative IPC: 0.17793 (Simulation time: 0 hr 24 min 8 sec) 
Heartbeat CPU  3 instructions:  121000003 cycles:  443233777 heartbeat IPC: 0.13747 cumulative IPC: 0.14605 (Simulation time: 0 hr 24 min 11 sec) 
Heartbeat CPU  2 instructions:  135000002 cycles:  447117160 heartbeat IPC: 0.18189 cumulative IPC: 0.17798 (Simulation time: 0 hr 24 min 20 sec) 
Heartbeat CPU  1 instructions:  105000001 cycles:  447830038 heartbeat IPC: 0.11963 cumulative IPC: 0.12648 (Simulation time: 0 hr 24 min 21 sec) 
Heartbeat CPU  0 instructions:  104000000 cycles:  448565673 heartbeat IPC: 0.11884 cumulative IPC: 0.12688 (Simulation time: 0 hr 24 min 23 sec) 
Heartbeat CPU  3 instructions:  122000000 cycles:  450458768 heartbeat IPC: 0.13841 cumulative IPC: 0.14592 (Simulation time: 0 hr 24 min 27 sec) 
Heartbeat CPU  2 instructions:  136000000 cycles:  452930602 heartbeat IPC: 0.17201 cumulative IPC: 0.17790 (Simulation time: 0 hr 24 min 32 sec) 
Heartbeat CPU  1 instructions:  106000003 cycles:  456118534 heartbeat IPC: 0.12065 cumulative IPC: 0.12637 (Simulation time: 0 hr 24 min 39 sec) 
Heartbeat CPU  0 instructions:  105000002 cycles:  457008566 heartbeat IPC: 0.11844 cumulative IPC: 0.12672 (Simulation time: 0 hr 24 min 40 sec) 
Heartbeat CPU  3 instructions:  123000000 cycles:  457639836 heartbeat IPC: 0.13926 cumulative IPC: 0.14581 (Simulation time: 0 hr 24 min 42 sec) 
Heartbeat CPU  2 instructions:  137000001 cycles:  458374573 heartbeat IPC: 0.18369 cumulative IPC: 0.17798 (Simulation time: 0 hr 24 min 43 sec) 
Heartbeat CPU  2 instructions:  138000002 cycles:  464154808 heartbeat IPC: 0.17300 cumulative IPC: 0.17791 (Simulation time: 0 hr 24 min 55 sec) 
Heartbeat CPU  1 instructions:  107000001 cycles:  464443938 heartbeat IPC: 0.12011 cumulative IPC: 0.12625 (Simulation time: 0 hr 24 min 56 sec) 
Heartbeat CPU  3 instructions:  124000000 cycles:  464916460 heartbeat IPC: 0.13743 cumulative IPC: 0.14568 (Simulation time: 0 hr 24 min 57 sec) 
Heartbeat CPU  0 instructions:  106000002 cycles:  465691002 heartbeat IPC: 0.11518 cumulative IPC: 0.12649 (Simulation time: 0 hr 24 min 59 sec) 
Heartbeat CPU  2 instructions:  139000002 cycles:  469724662 heartbeat IPC: 0.17954 cumulative IPC: 0.17793 (Simulation time: 0 hr 25 min 7 sec) 
Heartbeat CPU  3 instructions:  125000001 cycles:  472209192 heartbeat IPC: 0.13712 cumulative IPC: 0.14554 (Simulation time: 0 hr 25 min 12 sec) 
Heartbeat CPU  1 instructions:  108000000 cycles:  472842313 heartbeat IPC: 0.11907 cumulative IPC: 0.12612 (Simulation time: 0 hr 25 min 14 sec) 
Heartbeat CPU  0 instructions:  107000000 cycles:  474124614 heartbeat IPC: 0.11857 cumulative IPC: 0.12634 (Simulation time: 0 hr 25 min 16 sec) 
Heartbeat CPU  2 instructions:  140000000 cycles:  475245064 heartbeat IPC: 0.18115 cumulative IPC: 0.17797 (Simulation time: 0 hr 25 min 19 sec) 
Heartbeat CPU  3 instructions:  126000000 cycles:  479470358 heartbeat IPC: 0.13772 cumulative IPC: 0.14541 (Simulation time: 0 hr 25 min 28 sec) 
Heartbeat CPU  2 instructions:  141000000 cycles:  480927982 heartbeat IPC: 0.17597 cumulative IPC: 0.17795 (Simulation time: 0 hr 25 min 31 sec) 
Heartbeat CPU  1 instructions:  109000003 cycles:  481145777 heartbeat IPC: 0.12043 cumulative IPC: 0.12601 (Simulation time: 0 hr 25 min 31 sec) 
Heartbeat CPU  0 instructions:  108000000 cycles:  482580719 heartbeat IPC: 0.11826 cumulative IPC: 0.12620 (Simulation time: 0 hr 25 min 35 sec) 
Heartbeat CPU  2 instructions:  142000002 cycles:  486498638 heartbeat IPC: 0.17951 cumulative IPC: 0.17796 (Simulation time: 0 hr 25 min 42 sec) 
Heartbeat CPU  3 instructions:  127000000 cycles:  486788547 heartbeat IPC: 0.13665 cumulative IPC: 0.14527 (Simulation time: 0 hr 25 min 43 sec) 
Heartbeat CPU  0 instructions:  109000000 cycles:  488924935 heartbeat IPC: 0.15762 cumulative IPC: 0.12662 (Simulation time: 0 hr 25 min 48 sec) 
Heartbeat CPU  1 instructions:  110000001 cycles:  489708628 heartbeat IPC: 0.11678 cumulative IPC: 0.12585 (Simulation time: 0 hr 25 min 51 sec) 
Heartbeat CPU  2 instructions:  143000000 cycles:  491936378 heartbeat IPC: 0.18390 cumulative IPC: 0.17803 (Simulation time: 0 hr 25 min 56 sec) 
Heartbeat CPU  0 instructions:  110000002 cycles:  493468345 heartbeat IPC: 0.22010 cumulative IPC: 0.12753 (Simulation time: 0 hr 26 min 0 sec) 
Heartbeat CPU  3 instructions:  128000000 cycles:  493854722 heartbeat IPC: 0.14152 cumulative IPC: 0.14522 (Simulation time: 0 hr 26 min 1 sec) 
Heartbeat CPU  2 instructions:  144000000 cycles:  497759113 heartbeat IPC: 0.17174 cumulative IPC: 0.17796 (Simulation time: 0 hr 26 min 9 sec) 
Heartbeat CPU  1 instructions:  111000001 cycles:  498034738 heartbeat IPC: 0.12010 cumulative IPC: 0.12574 (Simulation time: 0 hr 26 min 10 sec) 
Heartbeat CPU  0 instructions:  111000001 cycles:  500385913 heartbeat IPC: 0.14456 cumulative IPC: 0.12777 (Simulation time: 0 hr 26 min 15 sec) 
Heartbeat CPU  3 instructions:  129000002 cycles:  500712047 heartbeat IPC: 0.14583 cumulative IPC: 0.14523 (Simulation time: 0 hr 26 min 16 sec) 
Heartbeat CPU  2 instructions:  145000003 cycles:  503136064 heartbeat IPC: 0.18598 cumulative IPC: 0.17805 (Simulation time: 0 hr 26 min 20 sec) 
Heartbeat CPU  1 instructions:  112000000 cycles:  506478915 heartbeat IPC: 0.11842 cumulative IPC: 0.12562 (Simulation time: 0 hr 26 min 28 sec) 
Heartbeat CPU  3 instructions:  130000000 cycles:  507517232 heartbeat IPC: 0.14695 cumulative IPC: 0.14525 (Simulation time: 0 hr 26 min 30 sec) 
Heartbeat CPU  2 instructions:  146000000 cycles:  508642054 heartbeat IPC: 0.18162 cumulative IPC: 0.17809 (Simulation time: 0 hr 26 min 32 sec) 
Heartbeat CPU  0 instructions:  112000000 cycles:  508752781 heartbeat IPC: 0.11952 cumulative IPC: 0.12763 (Simulation time: 0 hr 26 min 32 sec) 
Heartbeat CPU  1 instructions:  113000002 cycles:  512563908 heartbeat IPC: 0.16434 cumulative IPC: 0.12610 (Simulation time: 0 hr 26 min 41 sec) 
Heartbeat CPU  2 instructions:  147000003 cycles:  514165195 heartbeat IPC: 0.18106 cumulative IPC: 0.17812 (Simulation time: 0 hr 26 min 45 sec) 
Heartbeat CPU  3 instructions:  131000000 cycles:  514344314 heartbeat IPC: 0.14648 cumulative IPC: 0.14527 (Simulation time: 0 hr 26 min 45 sec) 
Heartbeat CPU  0 instructions:  113000002 cycles:  517152283 heartbeat IPC: 0.11905 cumulative IPC: 0.12748 (Simulation time: 0 hr 26 min 51 sec) 
Heartbeat CPU  1 instructions:  114000000 cycles:  517286919 heartbeat IPC: 0.21173 cumulative IPC: 0.12692 (Simulation time: 0 hr 26 min 52 sec) 
Heartbeat CPU  2 instructions:  148000000 cycles:  519686397 heartbeat IPC: 0.18112 cumulative IPC: 0.17815 (Simulation time: 0 hr 26 min 57 sec) 
Heartbeat CPU  3 instructions:  132000000 cycles:  521174889 heartbeat IPC: 0.14640 cumulative IPC: 0.14528 (Simulation time: 0 hr 27 min 0 sec) 
Heartbeat CPU  1 instructions:  115000002 cycles:  524461482 heartbeat IPC: 0.13938 cumulative IPC: 0.12709 (Simulation time: 0 hr 27 min 7 sec) 
Heartbeat CPU  2 instructions:  149000003 cycles:  525035114 heartbeat IPC: 0.18696 cumulative IPC: 0.17825 (Simulation time: 0 hr 27 min 8 sec) 
Heartbeat CPU  0 instructions:  114000001 cycles:  525576235 heartbeat IPC: 0.11871 cumulative IPC: 0.12734 (Simulation time: 0 hr 27 min 10 sec) 
Heartbeat CPU  3 instructions:  133000001 cycles:  528016220 heartbeat IPC: 0.14617 cumulative IPC: 0.14530 (Simulation time: 0 hr 27 min 15 sec) 
Heartbeat CPU  2 instructions:  150000001 cycles:  530829671 heartbeat IPC: 0.17258 cumulative IPC: 0.17818 (Simulation time: 0 hr 27 min 20 sec) 
Heartbeat CPU  1 instructions:  116000000 cycles:  532670867 heartbeat IPC: 0.12181 cumulative IPC: 0.12701 (Simulation time: 0 hr 27 min 24 sec) 
Heartbeat CPU  0 instructions:  115000001 cycles:  534040866 heartbeat IPC: 0.11814 cumulative IPC: 0.12719 (Simulation time: 0 hr 27 min 27 sec) 
Heartbeat CPU  3 instructions:  134000003 cycles:  534861194 heartbeat IPC: 0.14609 cumulative IPC: 0.14531 (Simulation time: 0 hr 27 min 29 sec) 
Heartbeat CPU  2 instructions:  151000003 cycles:  536299209 heartbeat IPC: 0.18283 cumulative IPC: 0.17823 (Simulation time: 0 hr 27 min 32 sec) 
Heartbeat CPU  1 instructions:  117000001 cycles:  540945288 heartbeat IPC: 0.12085 cumulative IPC: 0.12691 (Simulation time: 0 hr 27 min 41 sec) 
Heartbeat CPU  3 instructions:  135000001 cycles:  541696467 heartbeat IPC: 0.14630 cumulative IPC: 0.14532 (Simulation time: 0 hr 27 min 43 sec) 
Heartbeat CPU  2 instructions:  152000000 cycles:  542158284 heartbeat IPC: 0.17067 cumulative IPC: 0.17815 (Simulation time: 0 hr 27 min 44 sec) 
Heartbeat CPU  0 instructions:  116000000 cycles:  542422381 heartbeat IPC: 0.11931 cumulative IPC: 0.12706 (Simulation time: 0 hr 27 min 44 sec) 
Heartbeat CPU  2 instructions:  153000001 cycles:  547949045 heartbeat IPC: 0.17269 cumulative IPC: 0.17809 (Simulation time: 0 hr 27 min 55 sec) 
[...]
AAAAAAAAAAAAAAAAAAAAAAAAAAAIAAAAAAAAAAAAAAAAA2AAAAAAAAAAAAAAAAAA
AAAAAAAAAAAAAAAAAAAAAAAAAAAIAAAAAAAAAAAAAAAIA2AAAAAAAAAAAAAAAAAA
AAAAAAAAAAAAAAAAAAAAAAAAAAAAAAAAAAAAAAAAAAAIA2AAAAAAAAAAAAAAAAAA
AAAAAAAAAAAAAAAAAAAAAAAAAAAAAAAAAAAAAAAAAAAAA2AAAAAAAAAAAAAAAAAA
AAAAAAAAAAAAAAAAAAAAAAAAAAAAAAAAAAAAAAAAAAAAAAAAAAAAAAAAAAAAAAAA
AAAAAAAAAAAAAAAAAAAAAAAAAAAAAAAAAAAAAAAAIAAAAAAAAAAAAAAAAAAAAAAA
AAAAAAAAAAAAAAAAAAAAAAAAAAAAAAAAAAAAAAAA4AAAAAAAAAAAAAAAAAAAAAAA
AAAAAAAAAAAAAAAAAAAAAAAAAAAAAAAAAAAAAAAA2AAAAAAAAAAAAAAAAAAAAAAA
AAIAAAAAAAAAAAAAAAAAAAAAAAAAAAAAAAAAAAAA2AAAAAAAAAAAAAAAAAAAAAAA
AAIAAAAAAAAAAAAAAAAAAAAAAAAAAAAAAAAAAAAAAAAAAAAAAAAAAAAAAAAAAAAA
AA4AAAAAAAAAAAAAAAAAAAAAAAAAAAAAAAAAAAAAAAAAAAAAAAAAAAAAAAAAAAAA
AA2AAAAAAAAAAAAAAAAAAAAAAAAAAAAAAAAAAAAAAAAAAAAAAAAAAAAAAAAAAAAA
AA2AAAAAAAAAAAAAAAAAAAAAAAAAAAAAAAAAAAAAAAAAAAAAAAAAAAAAIAAAAAAA
AA2AAAAAAAAAAAAAAAAAAAAAAAAAAAAAAAAAAAAAAAAAAAAAAAAAAAAAAAAAAAAA
AAAAAAAAAAAAAAAAAAAAAAAAAAAAAAAAAAAAAAAAAAAAAAAAAAAAAAAAAAAAAAAA
AAAAAAAAAAAAAAAAAAAAAAAAAAAAAAAAAAAAAAAAAAAAAAAAAAAAAAAAAAAAIAAA
AAAAAAAAAAAAAAAAAAAAAAAAAAAAAAAAAAAAAAAAAAAAAAAAAAAAAAAAAAAA2AAA
AAAAAAAAAAAAAAAAAAAAAAAAAAAAAAAAAAAAAAAAAAAAAAAAAAAAAAAAAAAAAAAA
AAAAAAAAAAAAAAAAAAAAAAAAAAAAAAAAAAAAAAAAAAAAAAAAAAAAAAAAAAAAAAAI
AAAAAAAAAAAAAAAAAAAAAAAAAAAAAAAAAAAAAAAAAAAAAAAAAAAAAAAIAAAAAAAI
AAAAAAAAAAAAAAAAAAAAAAAAAAAAAAAAAAAAAAAAAAAAAAAAAAAAAAAIAAAAAAA2
AAAAAAAAAAAAAAAAAAAAAAAAAAAAAAAAAAAAAAAAAAAAAAAAAAAAAAA4AAAAAAA2
AAAAAAAAAAAAAAAAAAAAAAAAAAAAAAAAAAAAAAAAAAAAAAAAAAAAAAA2AAAAAAA2
AAAAAAAAAAAAAAAAAAAAAAAAAAAAAAAAAAAAAAAAAAAAAAAAAAAAAAA2AAAAAAAA
AAAAAAAAAAAAAAAAAAAAAAAAAAAAAAAAAAAAAAAAAAAAAAAAAAAAAAAAAAAAAAAA
AAAAAAAAAAAAAAAAAAAAIAAAAAAAAAAAAAAAAAAAAAAAAAAAAAAAAAAAAAAAAAAA
AAAAAAAAAAAAAAAAAAAAIAAAAAAAAAAAAAAAAAAAIAAAAAAAAAAAAAAAAAAAAAAA
AAAAAAAAAAAAAAAAAAAA2AAAAAAAAAAAAAAAAAAAIAAAAAAAAAAAAAAAAAAAAAAA
AAAAAAAAAAAAAAAAAAAA2AAAAAAAAAAAAAAAAAAA2AAAAAAAAAAAAAAAAAAAAAAA
AAAAAAAAAAAAAAAAAAAAAAAAAAAAAAAAAAAAAAAA2AAAAAAAAAAAAAAAAAAAAAAA
AAAAAAAAAAAAAAAAAAAAAAAAAAAAAAAAAAAAAAAAAAAAAAAAAAAAAAAAAAAAAAAA
AAAAAAAAAAAAAAAAIAAAAAAAAAAAAAAAAAAAAAAAAAAAAAAAAAAAAAAAAAAAAAAA
AAAAAAAAAAAAAAAA4AAAAAAAAAAAAAAAAAAAAAAAAAAAAAAAAAAAAAAAAAAAAAAA
AAAAAAAAAAAAAAAA2AAAAAAAAAAAAAAAAAAAAAAAAAAAAAAAAAAAAAAAAAAAAAAA
AAAAAAAAAAAAAAAAAAAAAAAAAAAAAAAAAAAAAAAAAAAAAAAAAAAAAAAAAAAAAAAA
AAAAAAAAAAAAAAAAAAAAAAAAAAAAAAAAAAAAAAAAAAAAAAAAAAIAAAAAAAAAAAAA
AAAAAAAAAAAAIAAAAAAAAAAAAAAAAAAAAAAAAAAAAAAAAAAAAAIAAAAAAAAAAAAA
AAAAAAAAAAAAAAAAAAAAAAAAAAAAAAAAAAAAAAAAAAAAAAAAAAIAAAAAAAAAAAAA
AAAAAAAAAAAAAAAAAAAAAAAAAAAAAAAAAAAAAAAAAAAAAAAAAA4AAAAAAAAAAAAA
AAAAAAAAAAAAAAAAAAAAAAAAAAAAAAAAAAAAAAAAAAAAAAAAAA2AAAAAAAAAAAAA
AAAAAAAAAAAAAAAAAAAAAAAAAAAAAAAAAAAAAAAAAAAAAAIAAA2AAAAAAAAAAAAA
AAAAAAAAAAAAAAAAAAAAAAAAAAAAAAAAAAIAAAAAAAAAAAIAAA2AAAAAAAAAAAAA
AAAAAAAAAAAAAAAAAAAAAAAAAAIAAAAAAAIAAAAAAAAAAAIAAA2AAAAAAAAAAAAA
AAAAAAAAAAAAAAAAAAAAAAIAAAIAAAAAAAIAAAAAAAAAAAIAAA2AAAAAAAAAAAAA
AAAAAAAAAAAAAAIAAAAAAAIAAAIAAAAAAAIAAAAAAAAAAAIAAA2AAAAAAAAAAAAA
AAAAAAAAAAAAAAIAAAAAAAIAAA4AAAAAAAIAAAAAAAAAAAIAAA2AAAAAAAAAAAAA
AAAAAAAAAAAAAA4AAAAAAAIAAA4AAAAAAAIAAAAAAAAAAAIAAA2AAAAAAAAAAAAA
AAAAAAAAAAAAAA4AAAAAAAIAAA4AAAAAAA4AAAAAAAAAAA4AAA2AAAAAAAAAAAAA
AAAAAAAAAAAAAA4AAAAAAA4AAA4AAAAAAA4AAAAAAAAAAA4AAA2AAAAAAAAAAAAA
AAAAAAAAAAAAAA4AAAAAAA4AAA4AAAAAAA4AAAAAAAAAAA2AAA2AAAAAAAAAAAAA
AAAAAAAAAAAAAA4AAAAAAA4AAA4AAAAAAA2AAAAAAAAAAA2AAA2AAAAAAAAAAAAA
AAAAAAAAAAAAAA4AAAAAAA2AAA4AAAAAAA2AAAAAAAAAAA2AAA2AAAAAAAAAAAAA
AAAAAAAAAAAAAA4AAAAAAA2AAA4AAAAAAA2AAAAAAAAAAAAAAA2AAAAAAAAAAAAA
AAAAAAAAAAAAAA4AAAAAAA2AAA4AAAAAAAAAAAAAAAAAAAAAAA2AAAAAAAAAAAAA
AAAAAAAAAAAAAA4AAAAAAAAAAA4AAAAAAAAAAAAAAAAAAAAAAA2AAAAAAAAAAAAA
AAAAAAAAAAAAAA4AAAAAAAAAAA4AAAAAAAAAAAAAAAAAAAAAAAAAAAAAAAAAAAAA
AAAAAAAAAAAAAA4AAAAAAAAAAAAAAAAAAAAAAAAAAAAAAAAAAAAAAAAAAAAAAAAA
AAAAAAAAAAAAAAAAAAAAAAAAAAAAAAAAAAAAAAAAAAAAAAAAAAAAAAAAAAAAAAAA
AAAAAAAAAAAAAAAAAAAAAAAAAAAIAAAAAAAAAAAAAAAAAAAAAAAAAAAAAAAAAAAA
AAAAAAAAAAAAAAAAAAAAAAAAAAA4AAAAAAAAAAAAAAAAAAAAAAAAAAAAAAAAAAAA
AAAAAAAAAAAAAAAAAAAAAAAAAAA2AAAAAAAAAAAAAAAAAAAAAAAAAAAAAAAAAAAA
AAAAAAAAAAAAAAAAAAAAAAAAAAAAAAAAAAAAAAAAAAAAAAAAAAAAAAAAAAAAAAAA
AAAAAAAAAAAAAAAAAAAAAAAAAAAAAAAIAAAAAAAAAAAAAAAAAAAAAAAAAAAAAAAA
AAAAAAAAAAAAAAAAAAAAAAAAAAAAAAA2AAAAAAAAAAAAAAAAAAAAAAAAAAAAAAAA
AAAAAAAAAAAAAAAAAAAAAAAAAAAAAAAAAAAAAAAAAAAAAAAAAAAAAAAAAAAAAAAA
AAAAAAAAAAAAAAAAAAAAAAAAAAAAAAAAAAAAAAAAAIAAAAAAAAAAAAAAAAAAAAAA
AAAAAAAAAAAAAAAIAAAAAAAAAAAAAAAAAAAAAAAAAIAAAAAAAAAAAAAAAAAAAAAA
AAAAAAAAAAAAAAA2AAAAAAAAAAAAAAAAAAAAAAAAAIAAAAAAAAAAAAAAAAAAAAAA
AAAAAAAAAAAAAAA2AAAAAAAAAAAAAAAAAAAAAAAAA4AAAAAAAAAAAAAAAAAAAAAA
AAAAAAAAAAAAAAAAAAAAAAAAAAAAAAAAAAAAAAAAA4AAAAAAAAAAAAAAAAAAAAAA
[MLOP] Prefetch Degree Mean: 7.20463
[MLOP] Prefetch Degree SD: 2.81759
[MLOP] Max Score Left Mean (%): 53.12278
[MLOP] Max Score Left SD (%): 13.88460
[MLOP] Max Score Right Mean (%): 82.53050
[MLOP] Max Score Right SD (%): 10.68885

[MLOP] History of tracked zone:
IIIIIIIIIIIIIIIIIIIIIIIIIIIIIIIIIIIIIIIIIIIIIIIIIIIIIIIIIIIIIIII
IIIIIIIIIIIIIIIIIIIIIIIIIIIIIIIIAIIIIIIIIIIIIIIIIIIIIIIIIIIIIIII
IIIIIIIIIIIIIIIIIIIIIIIIIIIII4IIAIIIIIIIIIIIIIIIIIIIIIIIIIIIIIII
IIIIIIIIIIIIIIIIIIIIIIIIIIIII4IIA4IIIIIIIIIIIIIIIIIIIIIIIIIIIIII
IIIIIIIIIIIIIIIIIIIIIIIIIIIII4IIA4I4IIIIIIIIIIIIIIIIIIIIIIIIIIII
IIIIIIIIIIIIIIIIIIIIIIIIIII4I4IIA444IIIIIIIIIIIIIIIIIIIIIIIIIIII
IIIIIIIIIIIIIIIIIIIIIIIIIIIIIIIIAI44IIIIIIIIIIIIIIIIIIIIIIIIIIII
IIIIIIIIIIIIIIIIIIIIIIIIIIIIII4IA444IIIIIIIIIIIIIIIIIIIIIIIIIIII
IIIIIIIIIIIIIIIIIIIIIIIIIIIII44IA444IIIIIIIIIIIIIIIIIIIIIIIIIIII
IIIIIIIIIIIIIIIIIIIIIIIIIIIII44IA4444IIIIIIIIIIIIIIIIIIIIIIIIIII
IIIIIIIIIIIIIIIIIIIIIIIIIII4I44IA4444IIIIIIIIIIIIIIIIIIIIIIIIIII
IIIIIIIIIIIIIIIIIIIIIIIIIIIIIIIIAIIIIIIIIIIIIIIIIIIIIIIIIIIIIIII
IIIIIIIIIIIIIIIIIIIIIIIIIIIIIIIIA44IIIIIIIIIIIIIIIIIIIIIIIIIIIII
IIIIIIIIIIIIIIIIIIIIIIIIIIIIII4IA44IIIIIIIIIIIIIIIIIIIIIIIIIIIII
IIIIIIIIIIIIIIIIIIIIIIIIIIIIII4IA444IIIIIIIIIIIIIIIIIIIIIIIIIIII
IIIIIIIIIIIIIIIIIIIIIIIIIIIII44IA444IIIIIIIIIIIIIIIIIIIIIIIIIIII
IIIIIIIIIIIIIIIIIIIIIIIIIIIIIIIIA4IIIIIIIIIIIIIIIIIIIIIIIIIIIIII
IIIIIIIIIIIIIIIIIIIIIIIIIIIIII4IA4IIIIIIIIIIIIIIIIIIIIIIIIIIIIII
IIIIIIIIIIIIIIIIIIIIIIIIIIIIII4IA44IIIIIIIIIIIIIIIIIIIIIIIIIIIII
[MLOP] Prefetch Degree Mean: 1.28042
[MLOP] Prefetch Degree SD: 0.74229
[MLOP] Max Score Left Mean (%): 10.51852
[MLOP] Max Score Left SD (%): 2.84669
[MLOP] Max Score Right Mean (%): 34.51852
[MLOP] Max Score Right SD (%): 4.65153

[MLOP] History of tracked zone:
IIIIIIIIIIIIIIIIIIIIIIIIIIIIIIIIIIIIIIIIIIIIIIIIIIIIIIIIIIIIIIII
IIIIIIIIIIIIIIIIIIIIIIIIIIIIIIIIIIIIIIIIIIIIIIIIIIIIIIAIIIIIIIII
IIIIIIIIIIIIIIIIIIIIIIIIIIIIIIIIIIIIIIIIIIAIIIIIIIIIIIAIIIIIIIII
IIIIIIIIIIIIIIIIIIIIIIIIIIIIIIAIIIIIIIIIIIAIIIIIIIIIIIAIIIIIIIII
IIIIIIIIIIIIIIIIIIAIIIIIIIIIIIAIIIIIIIIIIIAIIIIIIIIIIIAIIIIIIIII
IIIIIIAIIIIIIIIIIIAIIIIIIIIIIIAIIIIIIIIIIIAIIIIIIIIIIIAIIIIIIIII
IIIIIIAIIIIIIIIIIIAIIIIIIIIIIIAIIIIIIIIIIIAIIIII4II4IIAII4II4IIA
IIIIIIAIIIIIIIIIIIAIIIIIIIIIIIAIIIII4II4IIAII4II4IIAIIAII4II4IIA
IIIIIIAIIIIIIIIIIIAIIIII4II4IIAII4II4IIAIIAII4II4IIAIIAII4II4IIA
IIIIIIAIIIII4II4IIAII4II4IIAIIAII4II4IIAIIAII4II4IIAIIAII4II4IIA
4II4IIAII4II4IIAIIAII4II4IIAIIAII4II4IIAIIAII4II4IIAIIAII4II4IIA
4IIAIIAII4II4IIAIIAII4II4IIAIIAII4II4IIAIIAII4II4IIAIIAII4II4IIA
4IIAIIAII4II4IIAIIAII4II4IIAIIAII4II4I4AI4AI44I44I4AI4AI44IA4IIA
4IIAIIAII4II4IIAIIAII4II4I4AI4AI44I44I4AI4AI44IA4I4AI4AI44IA4IIA
4IIAIIAII4II4I4AI4AI44I44I4AI4AI44IA4I4AI4AI44IA4I4AI4AI44IA4IIA
4I4AI4AI44I44I4AI4AI44IA4I4AI4AI44IA4I4AI4AI44IA4I4AI4AI44IA4IIA
4I4AI4AI44IA4I4AI4AI44IA4I4AI4AI44IA4I4AI4AI44IA4I4AI4AI44IA4IIA
4I4AI4AI44IA4I4AI4AI44IA4I4AI4AI44IA4I4AI4AI44IA4I4AI4A444IA4IIA
4I4AI4AI44IA4I4AI4AI44IA4I4AI4AI44IA4I4AI4A444IA4I4AI4A444IA4IIA
4I4AI4AI44IA4I4AI4AI44IA4I4AI4A444IA4I4AI4A444IA4I4AI4A444IA4IIA
4I4AI4AI44IA4I4AI4A444IA4I4AI4A444IA4I4AI4A444IA4I4AI4A444IA4IIA
4I4AI4A444IA4I4AI4A444IA4I4AI4A444IA4I4AI4A444IA4I4AI4A444IA4IIA
4I4AI4A444IA4I4AI4A444IA4I4AI4A444IA4I4AI4A444IA4I4A44A4A4IA4IIA
4I4AI4A444IA4I4AI4A444IA4I4AI4A444IA4I4A44A4A4IA4I4A44A4A4IA4IIA
4I4AI4A444IA4I4AI4A444IA4I4A44A4A4IA4I4A44A4A4IA4I4A44A4A4IA4IIA
444AI4A444IA444AI4A4A4IA4I4A44A4A4IA4I4A44A4A4IA4I4A44A4A4IA4IIA
444AI4A4A4IA444AI4A4A4IA4I4A44A4A4IA4I4A44A4A4IA4I4A44A4A4IA4IIA
444AI4A4A4IA444AI4A4A4IA4I4A44A4A4IA4I4A44A4A4IA444AA4A4A4IA4IIA
444AI4A4A4IA444AI4A4A4IA4I4A44A4A4IA444AA4A4A4IA444AA4A4A4IA4IIA
444AI4A4A4IA444AI4A4A4IA444AA4A4A4IA444AA4A4A4IA444AA4A4A4IA4IIA
444AI4A4A4IA444AA4A4A4IA444AA4A4A4IA444AA4A4A4IA444AA4A4A4IA4IIA
444AA4A4A4IA444AA4A4A4IA444AA4A4A4IA444AA4A4A4IA444AA4A4A4IA4IIA
444AA4A4A4IA444AA4A4A4IA444AA4A4A4IA444AA4A4A44A444AA4A4A4IAAIIA
444AA4A4A4IA444AA4A4A4IA444AA4A4A44A444AA4A4A44AA44AA4A4A4IAAIIA
444AA4A4A4IA444AA4A4A44A444AA4A4A44AA44AA4A4A44AA44AA4A4A4IAAIIA
444AA4A4A44A444AA4A4A44AA44AA4A4A44AA44AA4A4A44AA44AA4A4A4IAAIIA
444AA4A4A44AA44AA4A4A44AA44AA4A4A44AA44AA4A4A44AA44AA4A4A4IAAIIA
A44AA4A4A44AA44AA4A4A44AA44AA4A4A44AA44AA4A4A44AA44AA4A4A4IAAIIA
A44AA4A4A44AA44AA4A4A44AA44AA4A4A44AA44AA4A4A44AA44AA4A4A44AAAIA
A44AA4A4A44AA44AA4A4A44AA44AA4A4A44AA44AA4A4A44AAA4AA4A4A44AAAIA
A44AA4A4A44AA44AA4A4A44AA44AA4A4A44AAA4AA4A4A44AAA4AA4A4A44AAAIA
A44AA4A4A44AA44AA4A4A44AAA4AA4A4A44AAA4AA4A4A44AAA4AA4A4A44AAAIA
A44AA4A4A44AAA4AA4A4A44AAA4AA4A4A44AAA4AA4A4A44AAA4AA4A4A44AAAIA
AA4AA4A4A44AAA4AA4A4A44AAA4AA4A4A44AAA4AA4A4A44AAA4AA4A4A44AAAIA
AA4AA4A4A44AAA4AA4A4A44AAA4AA4A4A44AAA4AA4A4A44AAA4AA4A4AA4AAAIA
AA4AA4A4A44AAA4AA4A4A44AAA4AA4A4A44AAA4AA4A4AA4AAA4AA4A4AA4AAAIA
AA4AA4A4A44AAA4AA4A4A44AAA4AA4A4AA4AAA4AA4A4AA4AAA4AA4A4AA4AAAIA
AA4AA4A4A44AAA4AA4A4AA4AAA4AA4A4AA4AAA4AA4A4AA4AAA4AA4A4AA4AAAIA
AA4AA4A4AA4AAA4AA4A4AA4AAA4AA4A4AA4AAA4AA4A4AA4AAA4AA4A4AA4AAAIA
AA4AA4A4AA4AAA4AA4A4AA4AAA4AA4A4AA4AAA4AA4A4AA4AAA4AAAA4AA4AAAIA
AA4AA4A4AA4AAA4AA4A4AA4AAA4AA4A4AA4AAA4AAAA4AA4AAA4AAAA4AA4AAAIA
AA4AA4A4AA4AAA4AA4A4AA4AAA4AAAA4AA4AAA4AAAA4AA4AAA4AAAA4AA4AAAIA
AA4AA4A4AA4AAA4AAAA4AA4AAA4AAAA4AA4AAA4AAAA4AA4AAA4AAAA4AA4AAAIA
AA4AAAA4AA4AAA4AAAA4AA4AAA4AAAA4AA4AAA4AAAA4AA4AAA4AAAA4AA4AAAIA
AA4AAAA4AA4AAA4AAAA4AA4AAA4AAAA4AA4AAA4AAAA4AA4AAA4AAAA4AA4AAAAA
AA4AAAA4AA4AAA4AAAA4AA4AAA4AAAA4AA4AAA4AAAA4AA4AAAAAAAA4AA4AAAAA
AA4AAAA4AA4AAA4AAAA4AA4AAA4AAAA4AA4AAAAAAAA4AA4AAAAAAAA4AA4AAAAA
AA4AAAA4AA4AAA4AAAA4AA4AAAAAAAA4AA4AAAAAAAA4AA4AAAAAAAA4AA4AAAAA
AA4AAAA4AA4AAAAAAAA4AA4AAAAAAAA4AA4AAAAAAAA4AA4AAAAAAAA4AA4AAAAA
AAAAAAA4AA4AAAAAAAA4AA4AAAAAAAA4AA4AAAAAAAA4AA4AAAAAAAA4AA4AAAAA
AAAAAAA4AA4AAAAAAAA4AA4AAAAAAAA4AA4AAAAAAAA4AA4AAAAAAAA4AAAAAAAA
AAAAAAA4AA4AAAAAAAA4AA4AAAAAAAA4AA4AAAAAAAA4AAAAAAAAAAA4AAAAAAAA
AAAAAAA4AA4AAAAAAAA4AA4AAAAAAAA4AA4AAAAAAAA4AAAAAAAAAAAAAAAAAAAA
AAAAAAA4AA4AAAAAAAA4AA4AAAAAAAA4AA4AAAAAAAAAAAAAAAAAAAAAAAAAAAAA
AAAAAAA4AA4AAAAAAAA4AA4AAAAAAAAAAA4AAAAAAAAAAAAAAAAAAAAAAAAAAAAA
AAAAAAA4AA4AAAAAAAAAAA4AAAAAAAAAAA4AAAAAAAAAAAAAAAAAAAAAAAAAAAAA
AAAAAAAAAA4AAAAAAAAAAA4AAAAAAAAAAA4AAAAAAAAAAAAAAAAAAAAAAAAAAAAA
AAAAIAAAAA4AAAAAAAAAAA4AAAAAAAAAAA4AAAAAAAAAAAAAAAAAAAAAAAAAAAAA
AAAAIAAAAA4AAAAAAAAAAA4AAAAAAAAAAAAAAAAAAAAAAAAAAAAAAAAAAAAAAAAA
AAAA4AAAAA4AAAAAAAAAAAAAAAAAAAAAAAAAAAAAAAAAAAAAAAAAAAAAAAAAAAAA
AAAA4AAAAAAAAAAAAAAAAAAAAAAAAAAAAAAAAAAAAAAAAAAAAAAAAAAAAAAAAAAA
AAAAAAAAAAAAAAAAAAAAAAAAAAAAAAAAAAAAAAAAAAAAAAAAAAAAAAAAAAAAAAAA
AAAAAAAAAAAAAAAAAAAAAAAAAAAAAAAAAAAAAAAAAAAAAAAAIAAAAAAAAAAAAAAA
AAAAAAAAAAAAAAAAAAAAAAAAAAAAAAAAAAAAAAAAAAAAAAAA4AAAAAAAAAAAAAAA
AAAAAAAAAAAAAAAAAAAAAAAAAAAAAAAAAAAAAAAAAAAAAAAAAAAAAAAAAAAAAAAA
AAAAAAAAAAAAAAAAAAAAAAAAAAAAAAAAAAAAAAAAAAAAAAAAAAAAIAAAAAAAAAAA
AAAAAAAAAAAAAAAAAAAAAAAAAAAAAAAAAAAAAAAAAAAAAAAAAAAA2AAAAAAAAAAA
AAAAAAAAAAAAAAAAAAAAAAAAAAAAAAAAAAAAAAAAAAAIAAAAAAAA2AAAAAAAAAAA
AAAAAAAAAAAAAAAAAAAAAAAAAAAAAAAAAAAAAAAAAAA4AAAAAAAA2AAAAAAAAAAA
AAAAAAAAAAAAAAAAAAAAAAAAAAAAAAAAAAAAAAAAAAAAAAAAAAAA2AAAAAAAAAAA
AAAAAAAAAAAAAAAAAAAAAAAAAAAAAAAAAAAAAAAAAAAAAAAAAAAAAAAAAAAAAAAA
AAAAAAAAAAAIAAAAAAAAAAAAAAAAAAAAAAAAAAAAAAAAAAAAAAAAAAAAAAAAAAAA
AAAAAAAAAAA4AAAAAAAAAAAAAAAAAAAAAAAAAAAAAAAAAAAAAAAAAAAAAAAAAAAA
AAAAAAAAAAA4AAAAAAAAAAAAAAAAAAAAAAAAAAAAAAAIAAAAAAAAAAAAAAAAAAAA
AAAAAAAAAAA4AAAAAAAAAAAAAAAAAAAAAAAAAAAAAAA4AAAAAAAAAAAAAAAAAAAA
AAAAAAAAAAA2AAAAAAAAAAAAAAAAAAAAAAAAAAAAAAA4AAAAAAAAAAAAAAAAAAAA
AAAAAAAAAAA2AAAAAAAAAAAAAAAAAAAAAAAAAAAAAAA2AAAAAAAAAAAAAAAAAAAA
AAAAAAAAAAA2AAAAAAAAAAAAAAAAAAAAAIAAAAAAAAA2AAAAAAAAAAAAAAAAAAAA
AAAAAAAAAAA2AAAAAAAAAAAAAAAAAAAAA4AAAAAAAAA2AAAAAAAAAAAAAAAAAAAA
AAAAAAAAAAA2AAAAAAAAAAAAAAAAAAAAAAAAAAAAAAA2AAAAAAAAAAAAAAAAAAAA
AAAAAAAAAIA2AAAAAAAAAAAAAAAAAAAAAAAAAAAAAAA2AAAAAAAAAAAAAAAAAAAA
AAAAAAAAAIA2AAAAAAAAAAAAAAAAAAAAAAAAAAAAAAAAAAAAAAAAAAAAAAAAAAAA
AAAAAAAAA4A2AAAAAAAAAAAAAAAAAAAAAAAAAAAAAAAAAAAAAAAAAAAAAAAAAAAA
AAAAAAAAA4AAAAAAAAAAAAAAAAAAAAAAAAAAAAAAAAAAAAAAAAAAAAAAAAAAAAAA
AAAAAAAAA2AAAAAAAAAAAAAAAAAAAAAAAAAAAAAAAAAAAAAAAAAAAAAAAAAAAAAA
AAAAIAAAA2AAAAAAAAAAAAAAAAAAAAAAAAAAAAAAAAAAAAAAAAAAAAAAAAAAAAAA
AAAA4AAAA2AAAAAAAAAAAAAAAAAAAAAAAAAAAAAAAAAAAAAAAAAAAAAAAAAAAAAA
AAAA4AAAA2AAAAAAAAAAAAAAAAAAIAAAAAAAAAAAAAAAAAAAAAAAAAAAAAAAAAAA
AAAA4AAAAAAAAAAAAAAAAAAAAAAAIAAAAAAAAAAAAAAAAAAAAAAAAAAAAAAAAAAA
AAAA4AAAAAAIAAAAAAAAAAAAAAAAIAAAAAAAAAAAAAAAAAAAAAAAAAAAAAAAAAAA
AAAA4AAAAAA4AAAAAAAAAAAAAAAAIAAAAAAAAAAAAAAAAAAAAAAAAAAAAAAAAAAA
AAAA4AAAAAA2AAAAAAAAAAAAAAAAIAAAAAAAAAAAAAAAAAAAAAAAAAAAAAAAAAAA
AAAA4AAAAAA2IAAAAAAAAAAAAAAAIAAAAAAAAAAAAAAAAAAAAAAAAAAAAAAAAAAA
AAAA4AAAAAA2IAAAAAAAAAAAAAAA4AAAAAAAAAAAAAAAAAAAAAAAAAAAAAAAAAAA
AAAA4AAAAAA24AAAAAAAAAAAAAAA4AAAAAAAAAAAAAAAAAAAAAAAAAAAAAAAAAAA
AAAA4AAAAAA2AAAAAAAAAAAAAAAA4AAAAAAAAAAAAAAAAAAAAAAAAAAAAAAAAAAA
AAAA4AAAAAA2AAAAAAAAAAAAAAAAAAAAAAAAAAAAAAAAAAAAAAAAAAAAAAAAAAAA
AAAAAAAAAAA2AAAAAAAAAAAAAAAAAAAAAAAAAAAAAAAAAAAAAAAAAAAAAAAAAAAA
AAAAAAAAAAA2IAAAAAAAAAAAAAAAAAAAAAAAAAAAAAAAAAAAAAAAAAAAAAAAAAAA
AAAAAAAAAAA2AAAAAAAAAAAAAAAAAAAAAAAAAAAAAAAAAAAAAAAAAAAAAAAAAAAA
AAAAAAAAAAA2AAIAAAAAAAAAAAAAAAAAAAAAAAAAAAAAAAAAAAAAAAAAAAAAAAAA
AAAAAAAAAAA2AAIAAAAAAAAAAAAAAAAAAAAAAAAAAAAAAAAAAAAAIAAAAAAAAAAA
AAAAAAAAAAA2AA4AAAAAAAAAAAAAAAAAAAAAAAAAAAAAAAAAAAAAIAAAAAAAAAAA
AAAAAAAAAAA2AA2AAAAAAAAAAAAAAAAAAAAAAAAAAAAAAAAAAAAAIAAAAAAAAAAA
AAAAAAAAAAA2AA2AAAAAAAAAAAAAAAAAAAAAAAAAIAAAAAAAAAAAIAAAAAAAAAAA
AAAAAAAAAAA2AA2AIAAAAAAAAAAAAAAAAAAAAAAAIAAAAAAAAAAAIAAAAAAAAAAA
AAAAAAAAAAA2AA2AIAAAAAAAAAAAAIAAAAAAAAAAIAAAAAAAAAAAIAAAAAAAAAAA
AAAAAAAAAAA2AA2AIAAAAAAAAAAAAIAAAAAAIAAAIAAAAAAAAAAAIAAAAAAAAAAA
AAAAAAAAAAA2AA2AIAAAAAAAAAAAAIAAAAAAIAAAIIAAAAAAAAAAIAAAAAAAAAAA
AAAAAAAAAAA2AA2AIAAAAAAAAAAAAIAAAAAA4AAAIIAAAAAAAAAAIAAAAAAAAAAA
AAAAAAAAAAA2AA2AIAAAAAAAAAAAAIAAAAAA2AAAIIAAAAAAAAAAIAAAAAAAAAAA
AAAAAAAAAAA2AA2AIIAAAAAAAAAAAIAAAAAA2AAAIIAAAAAAAAAAIAAAAAAAAAAA
AAAAAAAAAAA2AA2AIIAAAAAAAAAAAIAAAAAA2AAAIIAAAAAAAAAA4AAAAAAAAAAA
AAAAAAAAAAA2AA2AIIAAAAAAAAAAAIAAAAAA2AAA44AAAAAAAAAA4AAAAAAAAAAA
AAAAAAAAAAA2AA2AIIAAAAAAAAAAA4AAAAAA2AAA44AAAAAAAAAA4AAAAAAAAAAA
AAAAAAAAAAA2AAAA44AAAAAAAAAAA4AAAAAA2AAA44AAAAAAAAAA4AAAAAAAAAAA
AAAAAAAAAAA2AAAA44AAAAAAAAAAA4AAAAAA2AAA44AAAAAAAAAA2AAAAAAAAAAA
AAAAAAAAAAA2AAAA44AAAAAAAAAAA4AAAAAA2AAA24AAAAAAAAAA2AAAAAAAAAAA
AAAAAAAAAAA2AAAA24AAAAAAAAAAA4AAAAAA2AAA24AAAAAAAAAA2AAAAAAAAAAA
AAAAAAAAAAAAAAAA24AAAAAAAAAAA4AAAAAA2AAA24AAAAAAAAAA2AAAAAAAAAAA
AAAAAAAAAAAAAAAA24AAAAAAAAAAA4AAAIAA2AAA24AAAAAAAAAA2AAAAAAAAAAA
AAAAAAAAAAAAAAAA24AAAAAAAAAAA4AAA4AA2AAA24AAAAAAAAAA2AAAAAAAAAAA
AAAAAAAAAAAAAAAA24AAAAAAAAAIA4AAA4AA2AAA24AAAAAAAAAA2AAAAAAAAAAA
AAAAAAAAAAAAAAAA24AAAAAAAAAIA4AAA4AA2AAA24AAAAAAAAAAAAAAAAAAAAAA
AAAAAAAAAAAAAAAA24AAAAAAAAAIA4AAA4AA2AAAA4AAAAAAAAAAAAAAAAAAAAAA
AAAAAAAAAAAAAAAAA4AAAAAAAAAIA4AAA4AA2AAAA4AAAAAAAAAAAAAAAAAAAAAA
AAAAAAAAAAAAAAAAA4AAAAAIAAAIA4AAA4AA2AAAA4AAAAAAAAAAAAAAAAAAAAAA
AAAIAAAAAAAAAAAAA4AAAAAIAAAIA4AAA4AA2AAAA4AAAAAAAAAAAAAAAAAAAAAA
AAAIAAAAAAAAAAAAA4AAAAAIAAAIA4AAA4AA2AAAA2AAAAAAAAAAAAAAAAAAAAAA
AAAIAAAAAAAAAAAAA4AAAAAIAAAIA2AAA4AA2AAAA2AAAAAAAAAAAAAAAAAAAAAA
AAAIAAAAAAAAAAAAA2AAAAA4AAAIA2AAA4AA2AAAA2AAAAAAAAAAAAAAAAAAAAAA
AAAIAAAAAAAAAAAAA2AAAAA4AAAIA2AAA4AA2AAAA2AIAAAAAAAAAAAAAAAAAAAA
AAAIAAAAAAAAAAAAA2AAAAA4AAAIA2AAA4AA2AAAA2AIIAAAAAAAAAAAAAAAAAAA
AAAIAAAAAAAAAAAAA2AIAAA4AAAIA2AAA4AA2AAAA2AIIAAAAAAAAAAAAAAAAAAA
AAAIAAAAAAAAAAAAA2AIAAA4AAA2A2AAA2AAAAAAA2AIIAAAAAAAAAAAAAAAAAAA
AAA2AAAAAAAAAAAAA2AIAAA4AAA2A2AAA2AAAAAAA2AIIAAAAAAAAAAAAAAAAAAA
AAA2AAAAAAAAAAAAA2AIAAA4AAA2A2AAAAAAAAAAA2AIIAAAAAAAAAAAAAAAAAAA
AAA2AAAAAAAAAAAAA2AIAAA4AAA2A2AAAAAAAAAAA2AI2AAAAAAAAAAAAAAAAAAA
AAA2AAAAAAAAAAAAA2AIAAA4AAA2A2AAAAAAAAAAAAAI2AAAAAAAAAAAAAAAAAAA
AAA2AAAAAAAAAAAAA2AIAAA2AAA2AAAAAAAAAAAAAAAI2AAAAAAAAAAAAAAAAAAA
AAA2AAAAAAAAAAAAAAAIAAA2AAA2AAAAAAAAAAAAAAAI2AAAAAAAAAAAAAAAAAAA
AAA2AAAAAAAAAAAAAAAIAAA2AAAIAAAAAAAAAAAAAAAI2AAAAAAAAAAAAAAAAAAA
AAA2AAAAAAAAAAAAAAAIAAA2AAAIAAAAAAAAAAAAAAA22AAAAAAAAAAAAAAAAAAA
AAA2AAAAAAAAAAAAAAA2AAA2AAAIAAAAAAAAAAAAAAA22AAAAAAAAAAAAAAAAAAA
AAA2AAAAAAAAAAAAAAA2AAA2AAAIAAAAAAAAAAIAAAA22AAAAAAAAAAAAAAAAAAA
AAA2AAAAAAAAAAAAAAA2AAA2AAA2AAAAAAAAAAIAAAA22AAAAAAAAAAAAAAAAAAA
AAA2AAAAAIAAAAAAAAA2AAA2AAA2AAAAAAAAAAIAAAA22AAAAAAAAAAAAAAAAAAA
AAA2AIAAAIAAAAAAAAA2AAA2AAA2AAAAAAAAAAIAAAA22AAAAAAAAAAAAAAAAAAA
AAA2AIAAAIAAAAAAAAA2AAA2AAAAAAAAAAAAAAIAAAA22AAAAAAAAAAAAAAAAAAA
AAA2AIAAA2AAAAAAAAA2AAA2AAAAAAAAAAAAAAIAAAA22AAAAAAAAAAAAAAAAAAA
AAA2AIAAAAAAAAAAAAA2AAA2AAAAAAAAAAAAAAIAAAA22AAAAAAAAAAAAAAAAAAA
AAA2AIAAAAAAAAAAAAA2AAA2AAAAAAAAAAAAAAAAAAA22AAAAAAAAAAAAAAAAAAA
AAA2A2AAAAAAAAAAAAA2AAA2AAAAAAAAAAAAAAAAAAA22AAAAAAAAAAAAAAAAAAA
AAA2A2AAAAAAAAAAAAA2AAA2AAAIAAAAAAAAAAAAAAA22AAAAAAAAAAAAAAAAAAA
AAA2A2AAAAAAAAAAAAA2AAA2AAA2AAAAAAAAAAAAAAA22AAAAAAAAAAAAAAAAAAA
AAA2A2AAAAAAAAAAAAA2AAA2AAA2AAAAAAIAAAAAAAA22AAAAAAAAAAAAAAAAAAA
AAA2A2AAAAAAAAAAAAA2AAA2AAA2AAAAAAAAAAAAAAA22AAAAAAAAAAAAAAAAAAA
AAA2A2AAAAAAAAAAAAA2AAA2AAA2AAAAAAAAAAAAAAAA2AAAAAAAAAAAAAAAAAAA
AAA2A2AAAAAAAAAAAAAAAAA2AAA2AAAAAAAAAAAAAAAA2AAAAAAAAAAAAAAAAAAA
AAA2A2AAAAAAAAAAAAAAAAA2AAA2AAAAAAAAAAAAAAAA2AAAAAAAAAAIAAAAAAAA
AAA2A2AAAAAAAAAAAAAAAAA2AAA2AAAAAAAAAAAAAAAAAAAAAAAAAAAIAAAAAAAA
AAA2A2AAAAAAAAAAAAAAAAAAAAA2AAAAAAAAAAAAAAAAAAAAAAAAAAAIAAAAAAAA
AAA2A2AAAAAAAAAAAAAAAAAAAAAAAAAAAAAAAAAAAAAAAAAAAAAAAAAIAAAAAAAA
AAAAA2AAAAAAAAAAAAAAAAAAAAAAAAAAAAAAAAAAAAAAAAAAAAAAAAAIAAAAAAAA
AAAAA2AAAAAAAAAAAAAAAAAAAAAAAAAAAAAAAAAAAAAAAAAAAAAAAAAAAAAAAAAA
AAAAA2AAAAAAAAAAAAAAAAAIAAAAAAAAAAAAAAAAAAAAAAAAAAAAAAAAAAAAAAAA
AAAAA2AAAAAAAAAAAAAAAAAIAAAAAAAAAAAAAAAAAAAAAAAAIAAAAAAAAAAAAAAA
AAAAA2AAAAAAAAAAAAAAAAAIAAAAAAAAAAAAAAAAAAAAAAAA4AAAAAAAAAAAAAAA
AAAAA2AAAAAAAAAAAAAAAAAAAAAAAAAAAAAAAAAAAAAAAAAA4AAAAAAAAAAAAAAA
AAAAA2AAAAAAAAAAAAAAAAAAAAAAAAAAAAAAAAAAAAAAAAAA4AAAAAAIAAAAAAAA
AAAAA2AAAAAAAAAAAAAAAAAAAAAAAAAIAAAAAAAAAAAAAAAA4AAAAAAIAAAAAAAA
AAAAA2AAAAAAIAAAAAAAAAAAAAAAAAAIAAAAAAAAAAAAAAAA4AAAAAAIAAAAAAAA
AAAAA2AIAAAAIAAAAAAAAAAAAAAAAAAIAAAAAAAAAAAAAAAA4AAAAAAIAAAAAAAA
AAAIA2AIAAAAIAAAAAAAAAAAAAAAAAAIAAAAAAAAAAAAAAAA4AAAAAAIAAAAAAAA
AAAIA2AIAAAAIAAAAAAAAAAAAAAAAAAIAAAAAAAAAAAAAAAA2AAAAAAAAAAAAAAA
AAAIA2AIAAAAIAAAAAAAAAAAAAAAAAAAAAAAAAAAAAAAAAAA2AAAAAAAAAAAAAAA
AAAIA2AIAAAA2AAAAAAAAAAAAAAAAAAAAAAAAAAAAAAAAAAA2AAAAAAAAAAAAAAA
AAAIA2AAAAAA2AAAAAAAAAAAAAAAAAAAAAAAAAAAAAAAAAAA2AAAAAAAAAAAAAAA
AAA2A2AAAAAA2AAAAAAAAAAAAAAAAAAAAAAAAAAAAAAAAAAA2AAAAAAAAAAAAAAA
AAA2A2AAAAAA2AAAAAAAAAAIAAAAAAAAAAAAAAAAAAAAAAAA2AAAAAAAAAAAAAAA
AAA2A2AAAAAA2AAAAAAAAAAAAAAAAAAAAAAAAAAAAAAAAAAA2AAAAAAAAAAAAAAA
AAAAA2AAAAAA2AAAAAAAAAAAAAAAAAAAAAAAAAAAAAAAAAAA2AAAAAAAAAAAAAAA
AAAAA2AAAAAA2AAAAAAAAAAAAAAAAAAAAAAAAAAAAAAAAAAAAAAAAAAAAAAAAAAA
AAAAA2AAAAAAAAAAAAAAAAAAAAAAAAAAAAAAAAAAAAAAAAAAAAAAAAAAAAAAAAAA
AAAAA2AAAAAAAAAAAAAAAAAAAAAAIAAAAAAAAAAAAAAAAAAAAAAAAAAAAAAAAAAA
AAAAA2AAAAAAAAAAAAAAAAAAAAAA4AAAAAAAAAAAAAAAAAAAAAAAAAAAAAAAAAAA
AAAAA2AAAAAAAAAAAAAAAAAAAAAA4AAAAAAAAAAAAAAAAAAAAAAAAAAAAAAIAAAA
AAAAA2AAAAAAAIAAAAAAAAAAAAAA4AAAAAAAAAAAAAAAAAAAAAAAAAAAAAAIAAAA
AAAAAAAAAAAAAIAAAAAAAAAAAAAA4AAAAAAAAAAAAAAAAAAAAAAAAAAAAAAIAAAA
[MLOP] Prefetch Degree Mean: 6.57851
[MLOP] Prefetch Degree SD: 1.86198
[MLOP] Max Score Left Mean (%): 33.07934
[MLOP] Max Score Left SD (%): 9.02447
[MLOP] Max Score Right Mean (%): 66.41488
[MLOP] Max Score Right SD (%): 9.45392

Channel_0_RQ_row_buffer_hit 16590
Channel_0_RQ_row_buffer_miss 284400
Channel_0_WQ_row_buffer_hit 4916
Channel_0_WQ_row_buffer_miss 121480
Channel_0_WQ_full 0
Channel_0_dbus_congested 27578

Channel_1_RQ_row_buffer_hit 16686
Channel_1_RQ_row_buffer_miss 284584
Channel_1_WQ_row_buffer_hit 4891
Channel_1_WQ_row_buffer_miss 121550
Channel_1_WQ_full 0
Channel_1_dbus_congested 27743

avg_congested_cycle 8

DRAM_bw_pochs 4716551
DRAM_bw_level_0 4714997
DRAM_bw_level_1 1371
DRAM_bw_level_2 159
DRAM_bw_level_3 24
