*************************************************
   ChampSim Multicore Out-of-Order Simulator
   Last compiled: Mar 31 2025 20:14:32
*************************************************
parsing config file: /data3/config/spp_dev2.ini

trace_0 /data3/CLOUD9/traces/cloud9_phase2_core0.trace.xz
trace_1 /data3/CLOUD9/traces/cloud9_phase2_core1.trace.xz
trace_2 /data3/CLOUD9/traces/cloud9_phase2_core2.trace.xz
trace_3 /data3/CLOUD9/traces/cloud9_phase2_core3.trace.xz
adding L2C_PREFETCHER: SPP_dev2
Initialize SIGNATURE TABLE
ST_SET: 1
ST_WAY: 256
ST_TAG_BIT: 16
ST_TAG_MASK: ffff

Initialize PATTERN TABLE
PT_SET: 512
PT_WAY: 4
SIG_DELTA_BIT: 7
C_SIG_BIT: 4
C_DELTA_BIT: 4

Initialize PREFETCH FILTER
FILTER_SET: 1024
fill_threshold: 90
pf_threshold: 40

adding L2C_PREFETCHER: SPP_dev2
Initialize SIGNATURE TABLE
ST_SET: 1
ST_WAY: 256
ST_TAG_BIT: 16
ST_TAG_MASK: ffff

Initialize PATTERN TABLE
PT_SET: 512
PT_WAY: 4
SIG_DELTA_BIT: 7
C_SIG_BIT: 4
C_DELTA_BIT: 4

Initialize PREFETCH FILTER
FILTER_SET: 1024
fill_threshold: 90
pf_threshold: 40

adding L2C_PREFETCHER: SPP_dev2
Initialize SIGNATURE TABLE
ST_SET: 1
ST_WAY: 256
ST_TAG_BIT: 16
ST_TAG_MASK: ffff

Initialize PATTERN TABLE
PT_SET: 512
PT_WAY: 4
SIG_DELTA_BIT: 7
C_SIG_BIT: 4
C_DELTA_BIT: 4

Initialize PREFETCH FILTER
FILTER_SET: 1024
fill_threshold: 90
pf_threshold: 40

adding L2C_PREFETCHER: SPP_dev2
Initialize SIGNATURE TABLE
ST_SET: 1
ST_WAY: 256
ST_TAG_BIT: 16
ST_TAG_MASK: ffff

Initialize PATTERN TABLE
PT_SET: 512
PT_WAY: 4
SIG_DELTA_BIT: 7
C_SIG_BIT: 4
C_DELTA_BIT: 4

Initialize PREFETCH FILTER
FILTER_SET: 1024
fill_threshold: 90
pf_threshold: 40

Initialize SHIP state
warmup_instructions 50000000
simulation_instructions 150000000
champsim_seed 7342
measure_ipc 0
measure_ipc_epoch 1000
measure_dram_bw 1
measure_dram_bw_epoch 256
measure_cache_acc 1
measure_cache_acc_epoch 1024
l1d_perfect 0
l2c_perfect 0
llc_perfect 0
l1d_semi_perfect 0
l2c_semi_perfect 0
llc_semi_perfect 0
semi_perfect_cache_page_buffer_size 64

num_cpus 4
cpu_freq 4000
dram_io_freq 2400
page_size 4096
block_size 64
max_read_per_cycle 8
max_fill_per_cycle 1
dram_channels 2
log2_dram_channels 1
dram_ranks 1
dram_banks 8
dram_rows 65536
dram_columns 128
dram_row_size 8
dram_size 8192
dram_pages 2097152

fetch_width 6
decode_width 6
exec_width 4
lq_width 2
sq_width 2
retire_width 4
scheduler_size 128
branch_mispredict_penalty 20
rob_size 256
lq_size 72
sq_size 56
num_instr_destinations_sparc 4
num_instr_destinations 2
num_instr_sources 4

itlb_set 16
itlb_way 8
itlb_rq_size 16
itlb_wq_size 16
itlb_pq_size 0
itlb_mshr_size 8
itlb_latency 1

dtlb_set 16
dtlb_way 4
dtlb_rq_size 16
dtlb_wq_size 16
dtlb_pq_size 0
dtlb_mshr_size 8
dtlb_latency 1

stlb_set 128
stlb_way 12
stlb_rq_size 32
stlb_wq_size 32
stlb_pq_size 0
stlb_mshr_size 16
stlb_latency 8

l1i_size 32
l1i_set 64
l1i_way 8
l1i_rq_size 64
l1i_wq_size 64
l1i_pq_size 8
l1i_mshr_size 8
l1i_latency 1

l1d_size 32
l1d_set 64
l1d_way 8
l1d_rq_size 64
l1d_wq_size 64
l1d_pq_size 8
l1d_mshr_size 16
l1d_latency 4

l2c_size 256
l2c_set 512
l2c_way 8
l2c_rq_size 32
l2c_wq_size 32
l2c_pq_size 32
l2c_mshr_size 32
l2c_latency 10

llc_size 8192
llc_set 8192
llc_way 16
llc_rq_size 128
llc_wq_size 128
llc_pq_size 128
llc_mshr_size 256
llc_latency 20

dram_channel_width 8
dram_wq_size 64
dram_rq_size 64
tRP 15
tRCD 15
tCAS 12.5
dram_dbus_turn_around_time 30
dram_write_high_wm 56
dram_write_low_wm 48
min_dram_writes_per_switch 16
dram_mtps 2400
dram_dbus_return_time 13


Heartbeat CPU  3 instructions:    1000002 cycles:     391079 heartbeat IPC: 2.55703 cumulative IPC: 2.55703 (Simulation time: 0 hr 0 min 7 sec) 
Heartbeat CPU  1 instructions:    1000002 cycles:     424405 heartbeat IPC: 2.35624 cumulative IPC: 2.35624 (Simulation time: 0 hr 0 min 7 sec) 
Heartbeat CPU  2 instructions:    1000001 cycles:     441397 heartbeat IPC: 2.26554 cumulative IPC: 2.26554 (Simulation time: 0 hr 0 min 7 sec) 
Heartbeat CPU  0 instructions:    1000002 cycles:     447413 heartbeat IPC: 2.23508 cumulative IPC: 2.23508 (Simulation time: 0 hr 0 min 8 sec) 
Heartbeat CPU  3 instructions:    2000003 cycles:     791086 heartbeat IPC: 2.49996 cumulative IPC: 2.52817 (Simulation time: 0 hr 0 min 13 sec) 
Heartbeat CPU  1 instructions:    2000000 cycles:     814536 heartbeat IPC: 2.56324 cumulative IPC: 2.45539 (Simulation time: 0 hr 0 min 13 sec) 
Heartbeat CPU  2 instructions:    2000000 cycles:     899979 heartbeat IPC: 2.18063 cumulative IPC: 2.22227 (Simulation time: 0 hr 0 min 14 sec) 
Heartbeat CPU  0 instructions:    2000000 cycles:     909165 heartbeat IPC: 2.16566 cumulative IPC: 2.19982 (Simulation time: 0 hr 0 min 15 sec) 
Heartbeat CPU  3 instructions:    3000000 cycles:    1178385 heartbeat IPC: 2.58198 cumulative IPC: 2.54586 (Simulation time: 0 hr 0 min 19 sec) 
Heartbeat CPU  1 instructions:    3000003 cycles:    1200175 heartbeat IPC: 2.59311 cumulative IPC: 2.49964 (Simulation time: 0 hr 0 min 19 sec) 
Heartbeat CPU  2 instructions:    3000003 cycles:    1322808 heartbeat IPC: 2.36503 cumulative IPC: 2.26790 (Simulation time: 0 hr 0 min 21 sec) 
Heartbeat CPU  0 instructions:    3000000 cycles:    1346627 heartbeat IPC: 2.28591 cumulative IPC: 2.22779 (Simulation time: 0 hr 0 min 22 sec) 
Heartbeat CPU  3 instructions:    4000000 cycles:    1567595 heartbeat IPC: 2.56931 cumulative IPC: 2.55168 (Simulation time: 0 hr 0 min 25 sec) 
Heartbeat CPU  1 instructions:    4000000 cycles:    1582187 heartbeat IPC: 2.61771 cumulative IPC: 2.52815 (Simulation time: 0 hr 0 min 25 sec) 
Heartbeat CPU  2 instructions:    4000000 cycles:    1793904 heartbeat IPC: 2.12270 cumulative IPC: 2.22977 (Simulation time: 0 hr 0 min 28 sec) 
Heartbeat CPU  0 instructions:    4000000 cycles:    1843293 heartbeat IPC: 2.01343 cumulative IPC: 2.17003 (Simulation time: 0 hr 0 min 29 sec) 
Heartbeat CPU  3 instructions:    5000000 cycles:    1957868 heartbeat IPC: 2.56231 cumulative IPC: 2.55380 (Simulation time: 0 hr 0 min 31 sec) 
Heartbeat CPU  1 instructions:    5000001 cycles:    1966985 heartbeat IPC: 2.59877 cumulative IPC: 2.54196 (Simulation time: 0 hr 0 min 31 sec) 
Heartbeat CPU  2 instructions:    5000001 cycles:    2241885 heartbeat IPC: 2.23224 cumulative IPC: 2.23027 (Simulation time: 0 hr 0 min 36 sec) 
Heartbeat CPU  0 instructions:    5000001 cycles:    2275947 heartbeat IPC: 2.31132 cumulative IPC: 2.19689 (Simulation time: 0 hr 0 min 36 sec) 
Heartbeat CPU  3 instructions:    6000003 cycles:    2347360 heartbeat IPC: 2.56745 cumulative IPC: 2.55606 (Simulation time: 0 hr 0 min 37 sec) 
Heartbeat CPU  1 instructions:    6000000 cycles:    2350491 heartbeat IPC: 2.60752 cumulative IPC: 2.55266 (Simulation time: 0 hr 0 min 37 sec) 
Heartbeat CPU  2 instructions:    6000000 cycles:    2660830 heartbeat IPC: 2.38695 cumulative IPC: 2.25494 (Simulation time: 0 hr 0 min 42 sec) 
Heartbeat CPU  0 instructions:    6000002 cycles:    2708250 heartbeat IPC: 2.31319 cumulative IPC: 2.21545 (Simulation time: 0 hr 0 min 43 sec) 
Heartbeat CPU  1 instructions:    7000001 cycles:    2734743 heartbeat IPC: 2.60246 cumulative IPC: 2.55966 (Simulation time: 0 hr 0 min 43 sec) 
Heartbeat CPU  3 instructions:    7000002 cycles:    2738594 heartbeat IPC: 2.55601 cumulative IPC: 2.55606 (Simulation time: 0 hr 0 min 43 sec) 
Heartbeat CPU  2 instructions:    7000003 cycles:    3099008 heartbeat IPC: 2.28218 cumulative IPC: 2.25879 (Simulation time: 0 hr 0 min 49 sec) 
Heartbeat CPU  1 instructions:    8000000 cycles:    3115296 heartbeat IPC: 2.62775 cumulative IPC: 2.56797 (Simulation time: 0 hr 0 min 50 sec) 
Heartbeat CPU  3 instructions:    8000000 cycles:    3128169 heartbeat IPC: 2.56689 cumulative IPC: 2.55741 (Simulation time: 0 hr 0 min 50 sec) 
Heartbeat CPU  0 instructions:    7000003 cycles:    3147896 heartbeat IPC: 2.27456 cumulative IPC: 2.22371 (Simulation time: 0 hr 0 min 50 sec) 
Heartbeat CPU  1 instructions:    9000003 cycles:    3498978 heartbeat IPC: 2.60633 cumulative IPC: 2.57218 (Simulation time: 0 hr 0 min 56 sec) 
Heartbeat CPU  3 instructions:    9000003 cycles:    3517032 heartbeat IPC: 2.57161 cumulative IPC: 2.55898 (Simulation time: 0 hr 0 min 56 sec) 
Heartbeat CPU  2 instructions:    8000000 cycles:    3519067 heartbeat IPC: 2.38061 cumulative IPC: 2.27333 (Simulation time: 0 hr 0 min 56 sec) 
Heartbeat CPU  0 instructions:    8000000 cycles:    3585526 heartbeat IPC: 2.28503 cumulative IPC: 2.23119 (Simulation time: 0 hr 0 min 57 sec) 
Heartbeat CPU  1 instructions:   10000002 cycles:    3888104 heartbeat IPC: 2.56986 cumulative IPC: 2.57195 (Simulation time: 0 hr 1 min 1 sec) 
Heartbeat CPU  3 instructions:   10000001 cycles:    3905915 heartbeat IPC: 2.57146 cumulative IPC: 2.56022 (Simulation time: 0 hr 1 min 2 sec) 
Heartbeat CPU  2 instructions:    9000001 cycles:    4096615 heartbeat IPC: 1.73146 cumulative IPC: 2.19694 (Simulation time: 0 hr 1 min 4 sec) 
Heartbeat CPU  0 instructions:    9000001 cycles:    4191810 heartbeat IPC: 1.64939 cumulative IPC: 2.14704 (Simulation time: 0 hr 1 min 6 sec) 
Heartbeat CPU  1 instructions:   11000002 cycles:    4270948 heartbeat IPC: 2.61203 cumulative IPC: 2.57554 (Simulation time: 0 hr 1 min 7 sec) 
Heartbeat CPU  3 instructions:   11000000 cycles:    4294765 heartbeat IPC: 2.57168 cumulative IPC: 2.56126 (Simulation time: 0 hr 1 min 7 sec) 
Heartbeat CPU  2 instructions:   10000001 cycles:    4528862 heartbeat IPC: 2.31349 cumulative IPC: 2.20806 (Simulation time: 0 hr 1 min 11 sec) 
Heartbeat CPU  0 instructions:   10000002 cycles:    4628723 heartbeat IPC: 2.28879 cumulative IPC: 2.16042 (Simulation time: 0 hr 1 min 13 sec) 
Heartbeat CPU  1 instructions:   12000000 cycles:    4654274 heartbeat IPC: 2.60874 cumulative IPC: 2.57828 (Simulation time: 0 hr 1 min 13 sec) 
Heartbeat CPU  3 instructions:   12000000 cycles:    4683774 heartbeat IPC: 2.57063 cumulative IPC: 2.56204 (Simulation time: 0 hr 1 min 14 sec) 
Heartbeat CPU  2 instructions:   11000000 cycles:    4959926 heartbeat IPC: 2.31984 cumulative IPC: 2.21778 (Simulation time: 0 hr 1 min 18 sec) 
Heartbeat CPU  1 instructions:   13000000 cycles:    5036190 heartbeat IPC: 2.61838 cumulative IPC: 2.58132 (Simulation time: 0 hr 1 min 19 sec) 
Heartbeat CPU  0 instructions:   11000002 cycles:    5066738 heartbeat IPC: 2.28303 cumulative IPC: 2.17102 (Simulation time: 0 hr 1 min 20 sec) 
Heartbeat CPU  3 instructions:   13000000 cycles:    5074678 heartbeat IPC: 2.55817 cumulative IPC: 2.56174 (Simulation time: 0 hr 1 min 20 sec) 
Heartbeat CPU  2 instructions:   12000000 cycles:    5393843 heartbeat IPC: 2.30459 cumulative IPC: 2.22476 (Simulation time: 0 hr 1 min 25 sec) 
Heartbeat CPU  1 instructions:   14000003 cycles:    5417651 heartbeat IPC: 2.62151 cumulative IPC: 2.58415 (Simulation time: 0 hr 1 min 25 sec) 
Heartbeat CPU  3 instructions:   14000001 cycles:    5465104 heartbeat IPC: 2.56131 cumulative IPC: 2.56171 (Simulation time: 0 hr 1 min 26 sec) 
Heartbeat CPU  0 instructions:   12000000 cycles:    5504467 heartbeat IPC: 2.28451 cumulative IPC: 2.18005 (Simulation time: 0 hr 1 min 27 sec) 
Heartbeat CPU  1 instructions:   15000000 cycles:    5798718 heartbeat IPC: 2.62420 cumulative IPC: 2.58678 (Simulation time: 0 hr 1 min 31 sec) 
Heartbeat CPU  2 instructions:   13000003 cycles:    5854078 heartbeat IPC: 2.17281 cumulative IPC: 2.22067 (Simulation time: 0 hr 1 min 32 sec) 
Heartbeat CPU  3 instructions:   15000001 cycles:    5859435 heartbeat IPC: 2.53594 cumulative IPC: 2.55997 (Simulation time: 0 hr 1 min 32 sec) 
Heartbeat CPU  0 instructions:   13000001 cycles:    5968761 heartbeat IPC: 2.15381 cumulative IPC: 2.17801 (Simulation time: 0 hr 1 min 33 sec) 
Heartbeat CPU  1 instructions:   16000000 cycles:    6180031 heartbeat IPC: 2.62252 cumulative IPC: 2.58898 (Simulation time: 0 hr 1 min 36 sec) 
Heartbeat CPU  3 instructions:   16000000 cycles:    6253397 heartbeat IPC: 2.53831 cumulative IPC: 2.55861 (Simulation time: 0 hr 1 min 37 sec) 
Heartbeat CPU  2 instructions:   14000000 cycles:    6346432 heartbeat IPC: 2.03105 cumulative IPC: 2.20596 (Simulation time: 0 hr 1 min 39 sec) 
Heartbeat CPU  0 instructions:   14000002 cycles:    6441503 heartbeat IPC: 2.11532 cumulative IPC: 2.17341 (Simulation time: 0 hr 1 min 40 sec) 
Heartbeat CPU  1 instructions:   17000001 cycles:    6560477 heartbeat IPC: 2.62850 cumulative IPC: 2.59128 (Simulation time: 0 hr 1 min 42 sec) 
Heartbeat CPU  3 instructions:   17000001 cycles:    6649488 heartbeat IPC: 2.52467 cumulative IPC: 2.55659 (Simulation time: 0 hr 1 min 43 sec) 
Heartbeat CPU  2 instructions:   15000001 cycles:    6777803 heartbeat IPC: 2.31819 cumulative IPC: 2.21311 (Simulation time: 0 hr 1 min 46 sec) 
Heartbeat CPU  0 instructions:   15000002 cycles:    6891426 heartbeat IPC: 2.22260 cumulative IPC: 2.17662 (Simulation time: 0 hr 1 min 47 sec) 
Heartbeat CPU  1 instructions:   18000002 cycles:    6942524 heartbeat IPC: 2.61748 cumulative IPC: 2.59272 (Simulation time: 0 hr 1 min 48 sec) 
Heartbeat CPU  3 instructions:   18000000 cycles:    7043239 heartbeat IPC: 2.53967 cumulative IPC: 2.55564 (Simulation time: 0 hr 1 min 50 sec) 
Heartbeat CPU  2 instructions:   16000000 cycles:    7216153 heartbeat IPC: 2.28128 cumulative IPC: 2.21725 (Simulation time: 0 hr 1 min 52 sec) 
Heartbeat CPU  1 instructions:   19000002 cycles:    7327808 heartbeat IPC: 2.59549 cumulative IPC: 2.59286 (Simulation time: 0 hr 1 min 54 sec) 
Heartbeat CPU  0 instructions:   16000000 cycles:    7329669 heartbeat IPC: 2.28183 cumulative IPC: 2.18291 (Simulation time: 0 hr 1 min 54 sec) 
Heartbeat CPU  3 instructions:   19000001 cycles:    7438146 heartbeat IPC: 2.53224 cumulative IPC: 2.55440 (Simulation time: 0 hr 1 min 56 sec) 
Heartbeat CPU  2 instructions:   17000000 cycles:    7669202 heartbeat IPC: 2.20727 cumulative IPC: 2.21666 (Simulation time: 0 hr 2 min 0 sec) 
Heartbeat CPU  1 instructions:   20000000 cycles:    7712723 heartbeat IPC: 2.59797 cumulative IPC: 2.59312 (Simulation time: 0 hr 2 min 0 sec) 
Heartbeat CPU  0 instructions:   17000002 cycles:    7789733 heartbeat IPC: 2.17361 cumulative IPC: 2.18236 (Simulation time: 0 hr 2 min 1 sec) 
Heartbeat CPU  3 instructions:   20000000 cycles:    7832029 heartbeat IPC: 2.53882 cumulative IPC: 2.55362 (Simulation time: 0 hr 2 min 2 sec) 
Heartbeat CPU  1 instructions:   21000001 cycles:    8093707 heartbeat IPC: 2.62478 cumulative IPC: 2.59461 (Simulation time: 0 hr 2 min 6 sec) 
Heartbeat CPU  2 instructions:   18000001 cycles:    8097255 heartbeat IPC: 2.33616 cumulative IPC: 2.22298 (Simulation time: 0 hr 2 min 6 sec) 
Heartbeat CPU  3 instructions:   21000003 cycles:    8226077 heartbeat IPC: 2.53777 cumulative IPC: 2.55286 (Simulation time: 0 hr 2 min 9 sec) 
Heartbeat CPU  0 instructions:   18000001 cycles:    8227286 heartbeat IPC: 2.28544 cumulative IPC: 2.18784 (Simulation time: 0 hr 2 min 9 sec) 
Heartbeat CPU  1 instructions:   22000002 cycles:    8473973 heartbeat IPC: 2.62974 cumulative IPC: 2.59618 (Simulation time: 0 hr 2 min 12 sec) 
Heartbeat CPU  2 instructions:   19000002 cycles:    8585132 heartbeat IPC: 2.04970 cumulative IPC: 2.21313 (Simulation time: 0 hr 2 min 14 sec) 
Heartbeat CPU  3 instructions:   22000000 cycles:    8620313 heartbeat IPC: 2.53654 cumulative IPC: 2.55211 (Simulation time: 0 hr 2 min 14 sec) 
Heartbeat CPU  0 instructions:   19000001 cycles:    8726454 heartbeat IPC: 2.00333 cumulative IPC: 2.17729 (Simulation time: 0 hr 2 min 16 sec) 
Heartbeat CPU  1 instructions:   23000001 cycles:    8855372 heartbeat IPC: 2.62192 cumulative IPC: 2.59729 (Simulation time: 0 hr 2 min 18 sec) 
Heartbeat CPU  2 instructions:   20000000 cycles:    9006345 heartbeat IPC: 2.37409 cumulative IPC: 2.22066 (Simulation time: 0 hr 2 min 21 sec) 
Heartbeat CPU  3 instructions:   23000001 cycles:    9013123 heartbeat IPC: 2.54576 cumulative IPC: 2.55183 (Simulation time: 0 hr 2 min 21 sec) 
Heartbeat CPU  0 instructions:   20000000 cycles:    9152437 heartbeat IPC: 2.34751 cumulative IPC: 2.18521 (Simulation time: 0 hr 2 min 23 sec) 
Heartbeat CPU  1 instructions:   24000000 cycles:    9236457 heartbeat IPC: 2.62408 cumulative IPC: 2.59840 (Simulation time: 0 hr 2 min 24 sec) 
Heartbeat CPU  3 instructions:   24000000 cycles:    9407629 heartbeat IPC: 2.53481 cumulative IPC: 2.55112 (Simulation time: 0 hr 2 min 27 sec) 
Heartbeat CPU  2 instructions:   21000001 cycles:    9430832 heartbeat IPC: 2.35579 cumulative IPC: 2.22674 (Simulation time: 0 hr 2 min 27 sec) 
Heartbeat CPU  0 instructions:   21000002 cycles:    9591484 heartbeat IPC: 2.27767 cumulative IPC: 2.18944 (Simulation time: 0 hr 2 min 30 sec) 
Heartbeat CPU  1 instructions:   25000000 cycles:    9617704 heartbeat IPC: 2.62297 cumulative IPC: 2.59937 (Simulation time: 0 hr 2 min 30 sec) 
Heartbeat CPU  3 instructions:   25000003 cycles:    9802276 heartbeat IPC: 2.53392 cumulative IPC: 2.55043 (Simulation time: 0 hr 2 min 33 sec) 
Heartbeat CPU  2 instructions:   22000001 cycles:    9855587 heartbeat IPC: 2.35430 cumulative IPC: 2.23224 (Simulation time: 0 hr 2 min 34 sec) 
Heartbeat CPU  0 instructions:   22000000 cycles:   10023606 heartbeat IPC: 2.31416 cumulative IPC: 2.19482 (Simulation time: 0 hr 2 min 37 sec) 
Heartbeat CPU  1 instructions:   26000003 cycles:   10182548 heartbeat IPC: 1.77041 cumulative IPC: 2.55339 (Simulation time: 0 hr 2 min 39 sec) 
Heartbeat CPU  3 instructions:   26000003 cycles:   10197825 heartbeat IPC: 2.52813 cumulative IPC: 2.54956 (Simulation time: 0 hr 2 min 39 sec) 
Heartbeat CPU  2 instructions:   23000003 cycles:   10276390 heartbeat IPC: 2.37641 cumulative IPC: 2.23814 (Simulation time: 0 hr 2 min 40 sec) 
Heartbeat CPU  0 instructions:   23000003 cycles:   10460831 heartbeat IPC: 2.28716 cumulative IPC: 2.19868 (Simulation time: 0 hr 2 min 43 sec) 
Heartbeat CPU  1 instructions:   27000001 cycles:   10565791 heartbeat IPC: 2.60931 cumulative IPC: 2.55542 (Simulation time: 0 hr 2 min 44 sec) 
Heartbeat CPU  3 instructions:   27000002 cycles:   10594183 heartbeat IPC: 2.52297 cumulative IPC: 2.54857 (Simulation time: 0 hr 2 min 45 sec) 
Heartbeat CPU  2 instructions:   24000000 cycles:   10853915 heartbeat IPC: 1.73152 cumulative IPC: 2.21118 (Simulation time: 0 hr 2 min 48 sec) 
Heartbeat CPU  1 instructions:   28000000 cycles:   10947448 heartbeat IPC: 2.62015 cumulative IPC: 2.55767 (Simulation time: 0 hr 2 min 50 sec) 
Heartbeat CPU  3 instructions:   28000000 cycles:   10984529 heartbeat IPC: 2.56182 cumulative IPC: 2.54904 (Simulation time: 0 hr 2 min 51 sec) 
Heartbeat CPU  0 instructions:   24000000 cycles:   11068290 heartbeat IPC: 1.64620 cumulative IPC: 2.16836 (Simulation time: 0 hr 2 min 52 sec) 
Heartbeat CPU  2 instructions:   25000001 cycles:   11286115 heartbeat IPC: 2.31375 cumulative IPC: 2.21511 (Simulation time: 0 hr 2 min 55 sec) 
Heartbeat CPU  1 instructions:   29000002 cycles:   11327934 heartbeat IPC: 2.62822 cumulative IPC: 2.56004 (Simulation time: 0 hr 2 min 56 sec) 
Heartbeat CPU  3 instructions:   29000002 cycles:   11378175 heartbeat IPC: 2.54036 cumulative IPC: 2.54874 (Simulation time: 0 hr 2 min 57 sec) 
Heartbeat CPU  0 instructions:   25000003 cycles:   11507588 heartbeat IPC: 2.27637 cumulative IPC: 2.17248 (Simulation time: 0 hr 2 min 59 sec) 
Heartbeat CPU  1 instructions:   30000003 cycles:   11710701 heartbeat IPC: 2.61256 cumulative IPC: 2.56176 (Simulation time: 0 hr 3 min 2 sec) 
Heartbeat CPU  2 instructions:   26000000 cycles:   11715191 heartbeat IPC: 2.33059 cumulative IPC: 2.21934 (Simulation time: 0 hr 3 min 3 sec) 
Heartbeat CPU  3 instructions:   30000001 cycles:   11773224 heartbeat IPC: 2.53133 cumulative IPC: 2.54816 (Simulation time: 0 hr 3 min 4 sec) 
Heartbeat CPU  0 instructions:   26000002 cycles:   11940453 heartbeat IPC: 2.31019 cumulative IPC: 2.17747 (Simulation time: 0 hr 3 min 6 sec) 
Heartbeat CPU  1 instructions:   31000003 cycles:   12093200 heartbeat IPC: 2.61439 cumulative IPC: 2.56342 (Simulation time: 0 hr 3 min 9 sec) 
Heartbeat CPU  2 instructions:   27000000 cycles:   12158401 heartbeat IPC: 2.25627 cumulative IPC: 2.22069 (Simulation time: 0 hr 3 min 10 sec) 
Heartbeat CPU  3 instructions:   31000000 cycles:   12168512 heartbeat IPC: 2.52980 cumulative IPC: 2.54756 (Simulation time: 0 hr 3 min 10 sec) 
Heartbeat CPU  0 instructions:   27000000 cycles:   12418851 heartbeat IPC: 2.09031 cumulative IPC: 2.17411 (Simulation time: 0 hr 3 min 13 sec) 
Heartbeat CPU  1 instructions:   32000000 cycles:   12474533 heartbeat IPC: 2.62237 cumulative IPC: 2.56523 (Simulation time: 0 hr 3 min 14 sec) 
Heartbeat CPU  3 instructions:   32000000 cycles:   12564542 heartbeat IPC: 2.52506 cumulative IPC: 2.54685 (Simulation time: 0 hr 3 min 16 sec) 
Heartbeat CPU  2 instructions:   28000000 cycles:   12622681 heartbeat IPC: 2.15387 cumulative IPC: 2.21823 (Simulation time: 0 hr 3 min 17 sec) 
Heartbeat CPU  1 instructions:   33000003 cycles:   12855360 heartbeat IPC: 2.62587 cumulative IPC: 2.56702 (Simulation time: 0 hr 3 min 20 sec) 
Heartbeat CPU  0 instructions:   28000000 cycles:   12883781 heartbeat IPC: 2.15086 cumulative IPC: 2.17327 (Simulation time: 0 hr 3 min 21 sec) 
Heartbeat CPU  3 instructions:   33000000 cycles:   12959544 heartbeat IPC: 2.53163 cumulative IPC: 2.54639 (Simulation time: 0 hr 3 min 22 sec) 
Heartbeat CPU  2 instructions:   29000003 cycles:   13069484 heartbeat IPC: 2.23813 cumulative IPC: 2.21891 (Simulation time: 0 hr 3 min 23 sec) 
Heartbeat CPU  1 instructions:   34000002 cycles:   13238133 heartbeat IPC: 2.61251 cumulative IPC: 2.56834 (Simulation time: 0 hr 3 min 26 sec) 
Heartbeat CPU  0 instructions:   29000002 cycles:   13318781 heartbeat IPC: 2.29886 cumulative IPC: 2.17738 (Simulation time: 0 hr 3 min 27 sec) 
Heartbeat CPU  3 instructions:   34000002 cycles:   13354647 heartbeat IPC: 2.53099 cumulative IPC: 2.54593 (Simulation time: 0 hr 3 min 28 sec) 
Heartbeat CPU  2 instructions:   30000000 cycles:   13511277 heartbeat IPC: 2.26350 cumulative IPC: 2.22037 (Simulation time: 0 hr 3 min 30 sec) 
Heartbeat CPU  1 instructions:   35000002 cycles:   13620104 heartbeat IPC: 2.61800 cumulative IPC: 2.56973 (Simulation time: 0 hr 3 min 32 sec) 
Heartbeat CPU  3 instructions:   35000000 cycles:   13749205 heartbeat IPC: 2.53448 cumulative IPC: 2.54560 (Simulation time: 0 hr 3 min 34 sec) 
Heartbeat CPU  0 instructions:   30000001 cycles:   13764886 heartbeat IPC: 2.24162 cumulative IPC: 2.17946 (Simulation time: 0 hr 3 min 35 sec) 
Heartbeat CPU  2 instructions:   31000001 cycles:   13937825 heartbeat IPC: 2.34440 cumulative IPC: 2.22416 (Simulation time: 0 hr 3 min 37 sec) 
Heartbeat CPU  1 instructions:   36000000 cycles:   14003475 heartbeat IPC: 2.60843 cumulative IPC: 2.57079 (Simulation time: 0 hr 3 min 38 sec) 
Heartbeat CPU  3 instructions:   36000000 cycles:   14144170 heartbeat IPC: 2.53187 cumulative IPC: 2.54522 (Simulation time: 0 hr 3 min 41 sec) 
Heartbeat CPU  0 instructions:   31000003 cycles:   14230541 heartbeat IPC: 2.14752 cumulative IPC: 2.17841 (Simulation time: 0 hr 3 min 42 sec) 
Heartbeat CPU  2 instructions:   32000000 cycles:   14390638 heartbeat IPC: 2.20842 cumulative IPC: 2.22367 (Simulation time: 0 hr 3 min 44 sec) 
Heartbeat CPU  1 instructions:   37000000 cycles:   14429697 heartbeat IPC: 2.34620 cumulative IPC: 2.56416 (Simulation time: 0 hr 3 min 45 sec) 
Heartbeat CPU  3 instructions:   37000001 cycles:   14538991 heartbeat IPC: 2.53280 cumulative IPC: 2.54488 (Simulation time: 0 hr 3 min 47 sec) 
Heartbeat CPU  0 instructions:   32000000 cycles:   14664935 heartbeat IPC: 2.30205 cumulative IPC: 2.18208 (Simulation time: 0 hr 3 min 49 sec) 
Heartbeat CPU  2 instructions:   33000000 cycles:   14812885 heartbeat IPC: 2.36828 cumulative IPC: 2.22779 (Simulation time: 0 hr 3 min 51 sec) 
Heartbeat CPU  1 instructions:   38000000 cycles:   14885656 heartbeat IPC: 2.19318 cumulative IPC: 2.55279 (Simulation time: 0 hr 3 min 52 sec) 
Heartbeat CPU  3 instructions:   38000001 cycles:   14934053 heartbeat IPC: 2.53125 cumulative IPC: 2.54452 (Simulation time: 0 hr 3 min 53 sec) 
Heartbeat CPU  0 instructions:   33000000 cycles:   15099884 heartbeat IPC: 2.29912 cumulative IPC: 2.18545 (Simulation time: 0 hr 3 min 55 sec) 
Heartbeat CPU  2 instructions:   34000001 cycles:   15303529 heartbeat IPC: 2.03814 cumulative IPC: 2.22171 (Simulation time: 0 hr 3 min 58 sec) 
Heartbeat CPU  3 instructions:   39000001 cycles:   15328394 heartbeat IPC: 2.53588 cumulative IPC: 2.54430 (Simulation time: 0 hr 3 min 59 sec) 
Heartbeat CPU  1 instructions:   39000001 cycles:   15341760 heartbeat IPC: 2.19248 cumulative IPC: 2.54208 (Simulation time: 0 hr 3 min 59 sec) 
Heartbeat CPU  0 instructions:   34000003 cycles:   15595528 heartbeat IPC: 2.01758 cumulative IPC: 2.18011 (Simulation time: 0 hr 4 min 3 sec) 
Heartbeat CPU  3 instructions:   40000000 cycles:   15716376 heartbeat IPC: 2.57744 cumulative IPC: 2.54512 (Simulation time: 0 hr 4 min 5 sec) 
Heartbeat CPU  2 instructions:   35000002 cycles:   15726783 heartbeat IPC: 2.36265 cumulative IPC: 2.22550 (Simulation time: 0 hr 4 min 5 sec) 
Heartbeat CPU  1 instructions:   40000000 cycles:   15793729 heartbeat IPC: 2.21254 cumulative IPC: 2.53265 (Simulation time: 0 hr 4 min 6 sec) 
Heartbeat CPU  0 instructions:   35000002 cycles:   16025992 heartbeat IPC: 2.32307 cumulative IPC: 2.18395 (Simulation time: 0 hr 4 min 10 sec) 
Heartbeat CPU  3 instructions:   41000002 cycles:   16110805 heartbeat IPC: 2.53532 cumulative IPC: 2.54488 (Simulation time: 0 hr 4 min 11 sec) 
Heartbeat CPU  2 instructions:   36000000 cycles:   16151381 heartbeat IPC: 2.35516 cumulative IPC: 2.22891 (Simulation time: 0 hr 4 min 12 sec) 
Heartbeat CPU  1 instructions:   41000002 cycles:   16252084 heartbeat IPC: 2.18172 cumulative IPC: 2.52275 (Simulation time: 0 hr 4 min 14 sec) 
Heartbeat CPU  0 instructions:   36000000 cycles:   16462910 heartbeat IPC: 2.28875 cumulative IPC: 2.18673 (Simulation time: 0 hr 4 min 17 sec) 
Heartbeat CPU  3 instructions:   42000002 cycles:   16504474 heartbeat IPC: 2.54021 cumulative IPC: 2.54476 (Simulation time: 0 hr 4 min 18 sec) 
Heartbeat CPU  2 instructions:   37000000 cycles:   16572829 heartbeat IPC: 2.37277 cumulative IPC: 2.23257 (Simulation time: 0 hr 4 min 19 sec) 
Heartbeat CPU  1 instructions:   42000000 cycles:   16671432 heartbeat IPC: 2.38465 cumulative IPC: 2.51928 (Simulation time: 0 hr 4 min 20 sec) 
Heartbeat CPU  0 instructions:   37000001 cycles:   16896887 heartbeat IPC: 2.30427 cumulative IPC: 2.18975 (Simulation time: 0 hr 4 min 24 sec) 
Heartbeat CPU  3 instructions:   43000002 cycles:   16899491 heartbeat IPC: 2.53154 cumulative IPC: 2.54446 (Simulation time: 0 hr 4 min 24 sec) 
Heartbeat CPU  2 instructions:   38000001 cycles:   16995167 heartbeat IPC: 2.36777 cumulative IPC: 2.23593 (Simulation time: 0 hr 4 min 26 sec) 
Heartbeat CPU  1 instructions:   43000001 cycles:   17091714 heartbeat IPC: 2.37936 cumulative IPC: 2.51584 (Simulation time: 0 hr 4 min 27 sec) 
Heartbeat CPU  3 instructions:   44000000 cycles:   17294139 heartbeat IPC: 2.53390 cumulative IPC: 2.54421 (Simulation time: 0 hr 4 min 30 sec) 
Heartbeat CPU  0 instructions:   38000002 cycles:   17499420 heartbeat IPC: 1.65966 cumulative IPC: 2.17150 (Simulation time: 0 hr 4 min 33 sec) 
Heartbeat CPU  1 instructions:   44000000 cycles:   17502831 heartbeat IPC: 2.43240 cumulative IPC: 2.51388 (Simulation time: 0 hr 4 min 33 sec) 
Heartbeat CPU  2 instructions:   39000003 cycles:   17574416 heartbeat IPC: 1.72638 cumulative IPC: 2.21914 (Simulation time: 0 hr 4 min 34 sec) 
Heartbeat CPU  3 instructions:   45000002 cycles:   17687446 heartbeat IPC: 2.54255 cumulative IPC: 2.54418 (Simulation time: 0 hr 4 min 36 sec) 
Heartbeat CPU  1 instructions:   45000003 cycles:   17918994 heartbeat IPC: 2.40291 cumulative IPC: 2.51130 (Simulation time: 0 hr 4 min 39 sec) 
Heartbeat CPU  0 instructions:   39000003 cycles:   17936027 heartbeat IPC: 2.29039 cumulative IPC: 2.17439 (Simulation time: 0 hr 4 min 40 sec) 
Heartbeat CPU  2 instructions:   40000000 cycles:   18004188 heartbeat IPC: 2.32681 cumulative IPC: 2.22171 (Simulation time: 0 hr 4 min 41 sec) 
Heartbeat CPU  3 instructions:   46000002 cycles:   18080471 heartbeat IPC: 2.54437 cumulative IPC: 2.54418 (Simulation time: 0 hr 4 min 42 sec) 
Heartbeat CPU  1 instructions:   46000003 cycles:   18333003 heartbeat IPC: 2.41541 cumulative IPC: 2.50914 (Simulation time: 0 hr 4 min 46 sec) 
Heartbeat CPU  0 instructions:   40000000 cycles:   18376091 heartbeat IPC: 2.27239 cumulative IPC: 2.17674 (Simulation time: 0 hr 4 min 47 sec) 
Heartbeat CPU  2 instructions:   41000002 cycles:   18431854 heartbeat IPC: 2.33828 cumulative IPC: 2.22441 (Simulation time: 0 hr 4 min 48 sec) 
Heartbeat CPU  3 instructions:   47000003 cycles:   18474563 heartbeat IPC: 2.53748 cumulative IPC: 2.54404 (Simulation time: 0 hr 4 min 49 sec) 
Heartbeat CPU  1 instructions:   47000003 cycles:   18745433 heartbeat IPC: 2.42465 cumulative IPC: 2.50728 (Simulation time: 0 hr 4 min 53 sec) 
Heartbeat CPU  0 instructions:   41000001 cycles:   18804335 heartbeat IPC: 2.33512 cumulative IPC: 2.18035 (Simulation time: 0 hr 4 min 54 sec) 
Heartbeat CPU  3 instructions:   48000000 cycles:   18868295 heartbeat IPC: 2.53979 cumulative IPC: 2.54395 (Simulation time: 0 hr 4 min 55 sec) 
Heartbeat CPU  2 instructions:   42000002 cycles:   18880781 heartbeat IPC: 2.22753 cumulative IPC: 2.22448 (Simulation time: 0 hr 4 min 55 sec) 
Heartbeat CPU  1 instructions:   48000000 cycles:   19146561 heartbeat IPC: 2.49296 cumulative IPC: 2.50698 (Simulation time: 0 hr 4 min 59 sec) 
Heartbeat CPU  3 instructions:   49000000 cycles:   19261179 heartbeat IPC: 2.54528 cumulative IPC: 2.54398 (Simulation time: 0 hr 5 min 1 sec) 
Heartbeat CPU  0 instructions:   42000003 cycles:   19268512 heartbeat IPC: 2.15435 cumulative IPC: 2.17972 (Simulation time: 0 hr 5 min 1 sec) 
Heartbeat CPU  2 instructions:   43000003 cycles:   19349077 heartbeat IPC: 2.13540 cumulative IPC: 2.22233 (Simulation time: 0 hr 5 min 2 sec) 
Heartbeat CPU  1 instructions:   49000002 cycles:   19553415 heartbeat IPC: 2.45789 cumulative IPC: 2.50596 (Simulation time: 0 hr 5 min 5 sec) 
Heartbeat CPU  3 instructions:   50000001 cycles:   19653165 heartbeat IPC: 2.55111 cumulative IPC: 2.54412 (Simulation time: 0 hr 5 min 6 sec) 
Heartbeat CPU  0 instructions:   43000003 cycles:   19718927 heartbeat IPC: 2.22017 cumulative IPC: 2.18065 (Simulation time: 0 hr 5 min 7 sec) 
Heartbeat CPU  2 instructions:   44000000 cycles:   19777392 heartbeat IPC: 2.33472 cumulative IPC: 2.22476 (Simulation time: 0 hr 5 min 8 sec) 
Heartbeat CPU  1 instructions:   50000003 cycles:   19963477 heartbeat IPC: 2.43866 cumulative IPC: 2.50457 (Simulation time: 0 hr 5 min 11 sec) 
Heartbeat CPU  3 instructions:   51000002 cycles:   20047222 heartbeat IPC: 2.53771 cumulative IPC: 0.04988 (Simulation time: 0 hr 5 min 13 sec) 
Heartbeat CPU  0 instructions:   44000000 cycles:   20154493 heartbeat IPC: 2.29586 cumulative IPC: 2.18314 (Simulation time: 0 hr 5 min 15 sec) 
Heartbeat CPU  2 instructions:   45000002 cycles:   20217041 heartbeat IPC: 2.27455 cumulative IPC: 2.22585 (Simulation time: 0 hr 5 min 16 sec) 
Heartbeat CPU  1 instructions:   51000002 cycles:   20377121 heartbeat IPC: 2.41754 cumulative IPC: 0.04907 (Simulation time: 0 hr 5 min 18 sec) 
Heartbeat CPU  3 instructions:   52000000 cycles:   20456897 heartbeat IPC: 2.44095 cumulative IPC: 0.09777 (Simulation time: 0 hr 5 min 19 sec) 
Heartbeat CPU  0 instructions:   45000000 cycles:   20600163 heartbeat IPC: 2.24381 cumulative IPC: 2.18445 (Simulation time: 0 hr 5 min 21 sec) 
Heartbeat CPU  2 instructions:   46000001 cycles:   20671523 heartbeat IPC: 2.20030 cumulative IPC: 2.22528 (Simulation time: 0 hr 5 min 23 sec) 
Heartbeat CPU  1 instructions:   52000000 cycles:   20795941 heartbeat IPC: 2.38766 cumulative IPC: 0.09617 (Simulation time: 0 hr 5 min 25 sec) 
Heartbeat CPU  3 instructions:   53000002 cycles:   20851421 heartbeat IPC: 2.53471 cumulative IPC: 0.14388 (Simulation time: 0 hr 5 min 25 sec) 
Heartbeat CPU  0 instructions:   46000003 cycles:   21064214 heartbeat IPC: 2.15494 cumulative IPC: 2.18380 (Simulation time: 0 hr 5 min 29 sec) 
Heartbeat CPU  2 instructions:   47000002 cycles:   21103562 heartbeat IPC: 2.31461 cumulative IPC: 2.22711 (Simulation time: 0 hr 5 min 29 sec) 
Heartbeat CPU  1 instructions:   53000003 cycles:   21204591 heartbeat IPC: 2.44709 cumulative IPC: 0.14148 (Simulation time: 0 hr 5 min 31 sec) 
Heartbeat CPU  3 instructions:   54000001 cycles:   21243540 heartbeat IPC: 2.55024 cumulative IPC: 0.18829 (Simulation time: 0 hr 5 min 32 sec) 
Heartbeat CPU  0 instructions:   47000000 cycles:   21507145 heartbeat IPC: 2.25768 cumulative IPC: 2.18532 (Simulation time: 0 hr 5 min 36 sec) 
Heartbeat CPU  2 instructions:   48000000 cycles:   21528176 heartbeat IPC: 2.35508 cumulative IPC: 2.22964 (Simulation time: 0 hr 5 min 36 sec) 
Heartbeat CPU  1 instructions:   54000000 cycles:   21618349 heartbeat IPC: 2.41686 cumulative IPC: 0.18503 (Simulation time: 0 hr 5 min 38 sec) 
Heartbeat CPU  3 instructions:   55000001 cycles:   21637039 heartbeat IPC: 2.54130 cumulative IPC: 0.23109 (Simulation time: 0 hr 5 min 38 sec) 
Heartbeat CPU  0 instructions:   48000000 cycles:   22003291 heartbeat IPC: 2.01554 cumulative IPC: 2.18149 (Simulation time: 0 hr 5 min 44 sec) 
Heartbeat CPU  2 instructions:   49000001 cycles:   22020709 heartbeat IPC: 2.03032 cumulative IPC: 2.22518 (Simulation time: 0 hr 5 min 44 sec) 
Heartbeat CPU  1 instructions:   55000003 cycles:   22029737 heartbeat IPC: 2.43080 cumulative IPC: 0.22697 (Simulation time: 0 hr 5 min 44 sec) 
Heartbeat CPU  3 instructions:   56000000 cycles:   22030225 heartbeat IPC: 2.54332 cumulative IPC: 0.27235 (Simulation time: 0 hr 5 min 44 sec) 
Heartbeat CPU  3 instructions:   57000003 cycles:   22425701 heartbeat IPC: 2.52861 cumulative IPC: 0.31214 (Simulation time: 0 hr 5 min 51 sec) 
Heartbeat CPU  0 instructions:   49000000 cycles:   22436188 heartbeat IPC: 2.31002 cumulative IPC: 2.18397 (Simulation time: 0 hr 5 min 51 sec) 
Heartbeat CPU  2 instructions:   50000000 cycles:   22437839 heartbeat IPC: 2.39733 cumulative IPC: 2.22838 (Simulation time: 0 hr 5 min 51 sec) 
Heartbeat CPU  1 instructions:   56000000 cycles:   22448302 heartbeat IPC: 2.38911 cumulative IPC: 0.26728 (Simulation time: 0 hr 5 min 51 sec) 
Heartbeat CPU  3 instructions:   58000000 cycles:   22819160 heartbeat IPC: 2.54155 cumulative IPC: 0.35058 (Simulation time: 0 hr 5 min 57 sec) 
Heartbeat CPU  2 instructions:   51000001 cycles:   22863510 heartbeat IPC: 2.34923 cumulative IPC: 0.04374 (Simulation time: 0 hr 5 min 58 sec) 
Heartbeat CPU  0 instructions:   50000001 cycles:   22867978 heartbeat IPC: 2.31594 cumulative IPC: 2.18646 (Simulation time: 0 hr 5 min 58 sec) 

Warmup complete CPU  0 instructions:   50000001 cycles:   22867978 (Simulation time: 0 hr 5 min 58 sec) 
Warmup complete CPU  1 instructions:   56837996 cycles:   22867977 (Simulation time: 0 hr 5 min 58 sec) 
Warmup complete CPU  2 instructions:   51011434 cycles:   22867977 (Simulation time: 0 hr 5 min 58 sec) 
Warmup complete CPU  3 instructions:   58122930 cycles:   22867977 (Simulation time: 0 hr 5 min 58 sec) 

Heartbeat CPU  1 instructions:   57000000 cycles:   23329889 heartbeat IPC: 1.13432 cumulative IPC: 0.35072 (Simulation time: 0 hr 5 min 59 sec) 
Heartbeat CPU  1 instructions:   58000000 cycles:   26026516 heartbeat IPC: 0.37083 cumulative IPC: 0.36789 (Simulation time: 0 hr 6 min 4 sec) 
Heartbeat CPU  3 instructions:   59000001 cycles:   28676487 heartbeat IPC: 0.17073 cumulative IPC: 0.15100 (Simulation time: 0 hr 6 min 8 sec) 
Heartbeat CPU  1 instructions:   59000000 cycles:   29712171 heartbeat IPC: 0.27132 cumulative IPC: 0.31589 (Simulation time: 0 hr 6 min 10 sec) 
Heartbeat CPU  2 instructions:   52000000 cycles:   31031106 heartbeat IPC: 0.12243 cumulative IPC: 0.12110 (Simulation time: 0 hr 6 min 12 sec) 
Heartbeat CPU  0 instructions:   51000000 cycles:   31358470 heartbeat IPC: 0.11778 cumulative IPC: 0.11778 (Simulation time: 0 hr 6 min 13 sec) 
Heartbeat CPU  1 instructions:   60000000 cycles:   34059712 heartbeat IPC: 0.23002 cumulative IPC: 0.28253 (Simulation time: 0 hr 6 min 17 sec) 
Heartbeat CPU  3 instructions:   60000000 cycles:   35329082 heartbeat IPC: 0.15032 cumulative IPC: 0.15063 (Simulation time: 0 hr 6 min 19 sec) 
Heartbeat CPU  1 instructions:   61000001 cycles:   38766501 heartbeat IPC: 0.21246 cumulative IPC: 0.26179 (Simulation time: 0 hr 6 min 25 sec) 
Heartbeat CPU  2 instructions:   53000003 cycles:   39575817 heartbeat IPC: 0.11703 cumulative IPC: 0.11902 (Simulation time: 0 hr 6 min 26 sec) 
Heartbeat CPU  0 instructions:   52000000 cycles:   39833016 heartbeat IPC: 0.11800 cumulative IPC: 0.11789 (Simulation time: 0 hr 6 min 27 sec) 
Heartbeat CPU  3 instructions:   61000002 cycles:   42026911 heartbeat IPC: 0.14930 cumulative IPC: 0.15017 (Simulation time: 0 hr 6 min 30 sec) 
Heartbeat CPU  1 instructions:   62000002 cycles:   43337268 heartbeat IPC: 0.21878 cumulative IPC: 0.25218 (Simulation time: 0 hr 6 min 32 sec) 
Heartbeat CPU  2 instructions:   54000001 cycles:   47859094 heartbeat IPC: 0.12072 cumulative IPC: 0.11959 (Simulation time: 0 hr 6 min 39 sec) 
Heartbeat CPU  1 instructions:   63000000 cycles:   47920248 heartbeat IPC: 0.21820 cumulative IPC: 0.24597 (Simulation time: 0 hr 6 min 40 sec) 
Heartbeat CPU  0 instructions:   53000000 cycles:   48647557 heartbeat IPC: 0.11345 cumulative IPC: 0.11637 (Simulation time: 0 hr 6 min 41 sec) 
Heartbeat CPU  3 instructions:   62000001 cycles:   48728311 heartbeat IPC: 0.14922 cumulative IPC: 0.14992 (Simulation time: 0 hr 6 min 41 sec) 
Heartbeat CPU  1 instructions:   64000000 cycles:   52563703 heartbeat IPC: 0.21536 cumulative IPC: 0.24118 (Simulation time: 0 hr 6 min 47 sec) 
Heartbeat CPU  3 instructions:   63000003 cycles:   55425149 heartbeat IPC: 0.14932 cumulative IPC: 0.14980 (Simulation time: 0 hr 6 min 51 sec) 
Heartbeat CPU  2 instructions:   55000003 cycles:   56206159 heartbeat IPC: 0.11980 cumulative IPC: 0.11964 (Simulation time: 0 hr 6 min 53 sec) 
Heartbeat CPU  0 instructions:   54000001 cycles:   57188085 heartbeat IPC: 0.11709 cumulative IPC: 0.11655 (Simulation time: 0 hr 6 min 54 sec) 
Heartbeat CPU  1 instructions:   65000002 cycles:   58114566 heartbeat IPC: 0.18015 cumulative IPC: 0.23157 (Simulation time: 0 hr 6 min 56 sec) 
Heartbeat CPU  3 instructions:   64000000 cycles:   62157598 heartbeat IPC: 0.14853 cumulative IPC: 0.14958 (Simulation time: 0 hr 7 min 2 sec) 
Heartbeat CPU  1 instructions:   66000002 cycles:   63550295 heartbeat IPC: 0.18397 cumulative IPC: 0.22521 (Simulation time: 0 hr 7 min 4 sec) 
Heartbeat CPU  2 instructions:   56000000 cycles:   64539737 heartbeat IPC: 0.12000 cumulative IPC: 0.11971 (Simulation time: 0 hr 7 min 6 sec) 
Heartbeat CPU  0 instructions:   55000003 cycles:   65843947 heartbeat IPC: 0.11553 cumulative IPC: 0.11634 (Simulation time: 0 hr 7 min 8 sec) 
Heartbeat CPU  3 instructions:   65000000 cycles:   68796414 heartbeat IPC: 0.15063 cumulative IPC: 0.14973 (Simulation time: 0 hr 7 min 13 sec) 
Heartbeat CPU  2 instructions:   57000000 cycles:   68954993 heartbeat IPC: 0.22649 cumulative IPC: 0.12994 (Simulation time: 0 hr 7 min 13 sec) 
Heartbeat CPU  1 instructions:   67000003 cycles:   71797552 heartbeat IPC: 0.12125 cumulative IPC: 0.20769 (Simulation time: 0 hr 7 min 17 sec) 
Heartbeat CPU  0 instructions:   56000000 cycles:   73317065 heartbeat IPC: 0.13381 cumulative IPC: 0.11893 (Simulation time: 0 hr 7 min 20 sec) 
Heartbeat CPU  2 instructions:   58000001 cycles:   74217237 heartbeat IPC: 0.19003 cumulative IPC: 0.13610 (Simulation time: 0 hr 7 min 21 sec) 
Heartbeat CPU  3 instructions:   66000002 cycles:   75309051 heartbeat IPC: 0.15355 cumulative IPC: 0.15021 (Simulation time: 0 hr 7 min 23 sec) 
Heartbeat CPU  0 instructions:   57000001 cycles:   77980816 heartbeat IPC: 0.21442 cumulative IPC: 0.12701 (Simulation time: 0 hr 7 min 27 sec) 
Heartbeat CPU  1 instructions:   68000000 cycles:   81753807 heartbeat IPC: 0.10044 cumulative IPC: 0.18955 (Simulation time: 0 hr 7 min 32 sec) 
Heartbeat CPU  3 instructions:   67000000 cycles:   81809877 heartbeat IPC: 0.15383 cumulative IPC: 0.15061 (Simulation time: 0 hr 7 min 32 sec) 
Heartbeat CPU  2 instructions:   59000001 cycles:   82219820 heartbeat IPC: 0.12496 cumulative IPC: 0.13460 (Simulation time: 0 hr 7 min 33 sec) 
Heartbeat CPU  0 instructions:   58000003 cycles:   84252409 heartbeat IPC: 0.15945 cumulative IPC: 0.13033 (Simulation time: 0 hr 7 min 36 sec) 
Heartbeat CPU  3 instructions:   68000000 cycles:   88277805 heartbeat IPC: 0.15461 cumulative IPC: 0.15100 (Simulation time: 0 hr 7 min 41 sec) 
Heartbeat CPU  1 instructions:   69000000 cycles:   89018689 heartbeat IPC: 0.13765 cumulative IPC: 0.18385 (Simulation time: 0 hr 7 min 42 sec) 
Heartbeat CPU  2 instructions:   60000000 cycles:   90367622 heartbeat IPC: 0.12273 cumulative IPC: 0.13316 (Simulation time: 0 hr 7 min 44 sec) 
Heartbeat CPU  0 instructions:   59000003 cycles:   92613277 heartbeat IPC: 0.11960 cumulative IPC: 0.12904 (Simulation time: 0 hr 7 min 47 sec) 
Heartbeat CPU  1 instructions:   70000002 cycles:   94548464 heartbeat IPC: 0.18084 cumulative IPC: 0.18362 (Simulation time: 0 hr 7 min 50 sec) 
Heartbeat CPU  3 instructions:   69000001 cycles:   94758117 heartbeat IPC: 0.15431 cumulative IPC: 0.15130 (Simulation time: 0 hr 7 min 51 sec) 
Heartbeat CPU  1 instructions:   71000002 cycles:   97550634 heartbeat IPC: 0.33309 cumulative IPC: 0.18963 (Simulation time: 0 hr 7 min 56 sec) 
Heartbeat CPU  2 instructions:   61000001 cycles:   98515328 heartbeat IPC: 0.12273 cumulative IPC: 0.13204 (Simulation time: 0 hr 7 min 57 sec) 
Heartbeat CPU  0 instructions:   60000000 cycles:  101025928 heartbeat IPC: 0.11887 cumulative IPC: 0.12795 (Simulation time: 0 hr 8 min 1 sec) 
Heartbeat CPU  3 instructions:   70000000 cycles:  101244327 heartbeat IPC: 0.15417 cumulative IPC: 0.15154 (Simulation time: 0 hr 8 min 1 sec) 
Heartbeat CPU  1 instructions:   72000000 cycles:  101996421 heartbeat IPC: 0.22493 cumulative IPC: 0.19161 (Simulation time: 0 hr 8 min 3 sec) 
Heartbeat CPU  1 instructions:   73000001 cycles:  105590191 heartbeat IPC: 0.27826 cumulative IPC: 0.19538 (Simulation time: 0 hr 8 min 8 sec) 
Heartbeat CPU  2 instructions:   62000002 cycles:  106740953 heartbeat IPC: 0.12157 cumulative IPC: 0.13101 (Simulation time: 0 hr 8 min 10 sec) 
Heartbeat CPU  3 instructions:   71000000 cycles:  107748369 heartbeat IPC: 0.15375 cumulative IPC: 0.15171 (Simulation time: 0 hr 8 min 12 sec) 
Heartbeat CPU  1 instructions:   74000001 cycles:  108807788 heartbeat IPC: 0.31079 cumulative IPC: 0.19970 (Simulation time: 0 hr 8 min 14 sec) 
Heartbeat CPU  0 instructions:   61000000 cycles:  109395459 heartbeat IPC: 0.11948 cumulative IPC: 0.12713 (Simulation time: 0 hr 8 min 15 sec) 
Heartbeat CPU  1 instructions:   75000001 cycles:  112282546 heartbeat IPC: 0.28779 cumulative IPC: 0.20312 (Simulation time: 0 hr 8 min 20 sec) 
Heartbeat CPU  3 instructions:   72000000 cycles:  114274479 heartbeat IPC: 0.15323 cumulative IPC: 0.15182 (Simulation time: 0 hr 8 min 23 sec) 
Heartbeat CPU  2 instructions:   63000000 cycles:  114996636 heartbeat IPC: 0.12113 cumulative IPC: 0.13013 (Simulation time: 0 hr 8 min 24 sec) 
Heartbeat CPU  1 instructions:   76000000 cycles:  116648970 heartbeat IPC: 0.22902 cumulative IPC: 0.20433 (Simulation time: 0 hr 8 min 26 sec) 
Heartbeat CPU  0 instructions:   62000001 cycles:  117835959 heartbeat IPC: 0.11848 cumulative IPC: 0.12636 (Simulation time: 0 hr 8 min 28 sec) 
Heartbeat CPU  3 instructions:   73000001 cycles:  120722713 heartbeat IPC: 0.15508 cumulative IPC: 0.15203 (Simulation time: 0 hr 8 min 33 sec) 
Heartbeat CPU  1 instructions:   77000002 cycles:  120909312 heartbeat IPC: 0.23472 cumulative IPC: 0.20565 (Simulation time: 0 hr 8 min 33 sec) 
Heartbeat CPU  2 instructions:   64000000 cycles:  123217404 heartbeat IPC: 0.12164 cumulative IPC: 0.12943 (Simulation time: 0 hr 8 min 36 sec) 
Heartbeat CPU  0 instructions:   63000000 cycles:  126211728 heartbeat IPC: 0.11939 cumulative IPC: 0.12579 (Simulation time: 0 hr 8 min 40 sec) 
Heartbeat CPU  3 instructions:   74000001 cycles:  127246237 heartbeat IPC: 0.15329 cumulative IPC: 0.15211 (Simulation time: 0 hr 8 min 42 sec) 
Heartbeat CPU  1 instructions:   78000000 cycles:  127827941 heartbeat IPC: 0.14454 cumulative IPC: 0.20162 (Simulation time: 0 hr 8 min 43 sec) 
Heartbeat CPU  2 instructions:   65000001 cycles:  131393985 heartbeat IPC: 0.12230 cumulative IPC: 0.12890 (Simulation time: 0 hr 8 min 47 sec) 
Heartbeat CPU  3 instructions:   75000000 cycles:  133730435 heartbeat IPC: 0.15422 cumulative IPC: 0.15223 (Simulation time: 0 hr 8 min 51 sec) 
Heartbeat CPU  0 instructions:   64000000 cycles:  134672500 heartbeat IPC: 0.11819 cumulative IPC: 0.12522 (Simulation time: 0 hr 8 min 52 sec) 
Heartbeat CPU  1 instructions:   79000001 cycles:  134879870 heartbeat IPC: 0.14181 cumulative IPC: 0.19785 (Simulation time: 0 hr 8 min 52 sec) 
Heartbeat CPU  2 instructions:   66000002 cycles:  139603410 heartbeat IPC: 0.12181 cumulative IPC: 0.12840 (Simulation time: 0 hr 8 min 59 sec) 
Heartbeat CPU  3 instructions:   76000000 cycles:  140237062 heartbeat IPC: 0.15369 cumulative IPC: 0.15231 (Simulation time: 0 hr 9 min 0 sec) 
Heartbeat CPU  1 instructions:   80000000 cycles:  141917191 heartbeat IPC: 0.14210 cumulative IPC: 0.19456 (Simulation time: 0 hr 9 min 2 sec) 
Heartbeat CPU  0 instructions:   65000003 cycles:  143124075 heartbeat IPC: 0.11832 cumulative IPC: 0.12473 (Simulation time: 0 hr 9 min 4 sec) 
Heartbeat CPU  3 instructions:   77000003 cycles:  146730449 heartbeat IPC: 0.15400 cumulative IPC: 0.15240 (Simulation time: 0 hr 9 min 9 sec) 
Heartbeat CPU  2 instructions:   67000002 cycles:  147858517 heartbeat IPC: 0.12114 cumulative IPC: 0.12792 (Simulation time: 0 hr 9 min 10 sec) 
Heartbeat CPU  1 instructions:   81000000 cycles:  148916352 heartbeat IPC: 0.14287 cumulative IPC: 0.19169 (Simulation time: 0 hr 9 min 12 sec) 
Heartbeat CPU  0 instructions:   66000001 cycles:  151604182 heartbeat IPC: 0.11792 cumulative IPC: 0.12429 (Simulation time: 0 hr 9 min 15 sec) 
Heartbeat CPU  3 instructions:   78000002 cycles:  153183234 heartbeat IPC: 0.15497 cumulative IPC: 0.15253 (Simulation time: 0 hr 9 min 18 sec) 
Heartbeat CPU  1 instructions:   82000001 cycles:  155867966 heartbeat IPC: 0.14385 cumulative IPC: 0.18919 (Simulation time: 0 hr 9 min 21 sec) 
Heartbeat CPU  2 instructions:   68000000 cycles:  156345624 heartbeat IPC: 0.11783 cumulative IPC: 0.12728 (Simulation time: 0 hr 9 min 22 sec) 
Heartbeat CPU  3 instructions:   79000003 cycles:  159547688 heartbeat IPC: 0.15712 cumulative IPC: 0.15274 (Simulation time: 0 hr 9 min 26 sec) 
Heartbeat CPU  0 instructions:   67000001 cycles:  160076193 heartbeat IPC: 0.11804 cumulative IPC: 0.12390 (Simulation time: 0 hr 9 min 27 sec) 
Heartbeat CPU  1 instructions:   83000002 cycles:  162824660 heartbeat IPC: 0.14375 cumulative IPC: 0.18693 (Simulation time: 0 hr 9 min 31 sec) 
Heartbeat CPU  2 instructions:   69000000 cycles:  164620291 heartbeat IPC: 0.12085 cumulative IPC: 0.12690 (Simulation time: 0 hr 9 min 33 sec) 
Heartbeat CPU  3 instructions:   80000000 cycles:  166068268 heartbeat IPC: 0.15336 cumulative IPC: 0.15277 (Simulation time: 0 hr 9 min 35 sec) 
Heartbeat CPU  0 instructions:   68000000 cycles:  168822737 heartbeat IPC: 0.11433 cumulative IPC: 0.12333 (Simulation time: 0 hr 9 min 39 sec) 
Heartbeat CPU  1 instructions:   84000000 cycles:  169803200 heartbeat IPC: 0.14330 cumulative IPC: 0.18486 (Simulation time: 0 hr 9 min 40 sec) 
Heartbeat CPU  3 instructions:   81000000 cycles:  172558324 heartbeat IPC: 0.15408 cumulative IPC: 0.15283 (Simulation time: 0 hr 9 min 44 sec) 
Heartbeat CPU  2 instructions:   70000003 cycles:  172969575 heartbeat IPC: 0.11977 cumulative IPC: 0.12650 (Simulation time: 0 hr 9 min 45 sec) 
Heartbeat CPU  1 instructions:   85000001 cycles:  176784637 heartbeat IPC: 0.14324 cumulative IPC: 0.18297 (Simulation time: 0 hr 9 min 50 sec) 
Heartbeat CPU  0 instructions:   69000002 cycles:  177382036 heartbeat IPC: 0.11683 cumulative IPC: 0.12297 (Simulation time: 0 hr 9 min 51 sec) 
Heartbeat CPU  3 instructions:   82000001 cycles:  179048733 heartbeat IPC: 0.15407 cumulative IPC: 0.15288 (Simulation time: 0 hr 9 min 53 sec) 
Heartbeat CPU  2 instructions:   71000001 cycles:  180066290 heartbeat IPC: 0.14091 cumulative IPC: 0.12716 (Simulation time: 0 hr 9 min 55 sec) 
Heartbeat CPU  1 instructions:   86000000 cycles:  183781898 heartbeat IPC: 0.14291 cumulative IPC: 0.18123 (Simulation time: 0 hr 10 min 1 sec) 
Heartbeat CPU  2 instructions:   72000000 cycles:  184490132 heartbeat IPC: 0.22605 cumulative IPC: 0.12986 (Simulation time: 0 hr 10 min 2 sec) 
Heartbeat CPU  3 instructions:   83000003 cycles:  185519263 heartbeat IPC: 0.15455 cumulative IPC: 0.15295 (Simulation time: 0 hr 10 min 4 sec) 
Heartbeat CPU  0 instructions:   70000000 cycles:  186021783 heartbeat IPC: 0.11574 cumulative IPC: 0.12258 (Simulation time: 0 hr 10 min 4 sec) 
Heartbeat CPU  2 instructions:   73000001 cycles:  190465288 heartbeat IPC: 0.16736 cumulative IPC: 0.13120 (Simulation time: 0 hr 10 min 11 sec) 
Heartbeat CPU  1 instructions:   87000001 cycles:  190833530 heartbeat IPC: 0.14181 cumulative IPC: 0.17957 (Simulation time: 0 hr 10 min 12 sec) 
Heartbeat CPU  3 instructions:   84000000 cycles:  192036091 heartbeat IPC: 0.15345 cumulative IPC: 0.15297 (Simulation time: 0 hr 10 min 13 sec) 
Heartbeat CPU  0 instructions:   71000002 cycles:  192060968 heartbeat IPC: 0.16559 cumulative IPC: 0.12412 (Simulation time: 0 hr 10 min 14 sec) 
Heartbeat CPU  0 instructions:   72000000 cycles:  196784914 heartbeat IPC: 0.21169 cumulative IPC: 0.12650 (Simulation time: 0 hr 10 min 21 sec) 
Heartbeat CPU  1 instructions:   88000000 cycles:  197879310 heartbeat IPC: 0.14193 cumulative IPC: 0.17806 (Simulation time: 0 hr 10 min 23 sec) 
Heartbeat CPU  3 instructions:   85000003 cycles:  198524342 heartbeat IPC: 0.15413 cumulative IPC: 0.15301 (Simulation time: 0 hr 10 min 23 sec) 
Heartbeat CPU  2 instructions:   74000000 cycles:  198582804 heartbeat IPC: 0.12319 cumulative IPC: 0.13083 (Simulation time: 0 hr 10 min 24 sec) 
Heartbeat CPU  0 instructions:   73000000 cycles:  204080123 heartbeat IPC: 0.13708 cumulative IPC: 0.12692 (Simulation time: 0 hr 10 min 31 sec) 
Heartbeat CPU  1 instructions:   89000003 cycles:  204950990 heartbeat IPC: 0.14141 cumulative IPC: 0.17663 (Simulation time: 0 hr 10 min 32 sec) 
Heartbeat CPU  3 instructions:   86000003 cycles:  205058722 heartbeat IPC: 0.15304 cumulative IPC: 0.15301 (Simulation time: 0 hr 10 min 32 sec) 
Heartbeat CPU  2 instructions:   75000003 cycles:  206745917 heartbeat IPC: 0.12250 cumulative IPC: 0.13046 (Simulation time: 0 hr 10 min 35 sec) 
Heartbeat CPU  3 instructions:   87000003 cycles:  211625522 heartbeat IPC: 0.15228 cumulative IPC: 0.15299 (Simulation time: 0 hr 10 min 42 sec) 
Heartbeat CPU  1 instructions:   90000000 cycles:  212000519 heartbeat IPC: 0.14185 cumulative IPC: 0.17534 (Simulation time: 0 hr 10 min 42 sec) 
Heartbeat CPU  0 instructions:   74000000 cycles:  212436697 heartbeat IPC: 0.11967 cumulative IPC: 0.12660 (Simulation time: 0 hr 10 min 43 sec) 
Heartbeat CPU  2 instructions:   76000000 cycles:  214848774 heartbeat IPC: 0.12341 cumulative IPC: 0.13016 (Simulation time: 0 hr 10 min 46 sec) 
Heartbeat CPU  3 instructions:   88000000 cycles:  218177489 heartbeat IPC: 0.15263 cumulative IPC: 0.15297 (Simulation time: 0 hr 10 min 51 sec) 
Heartbeat CPU  1 instructions:   91000002 cycles:  219045579 heartbeat IPC: 0.14194 cumulative IPC: 0.17414 (Simulation time: 0 hr 10 min 52 sec) 
Heartbeat CPU  0 instructions:   75000003 cycles:  220809123 heartbeat IPC: 0.11944 cumulative IPC: 0.12630 (Simulation time: 0 hr 10 min 54 sec) 
Heartbeat CPU  2 instructions:   77000001 cycles:  223049547 heartbeat IPC: 0.12194 cumulative IPC: 0.12982 (Simulation time: 0 hr 10 min 57 sec) 
Heartbeat CPU  3 instructions:   89000001 cycles:  224738153 heartbeat IPC: 0.15242 cumulative IPC: 0.15296 (Simulation time: 0 hr 11 min 0 sec) 
Heartbeat CPU  1 instructions:   92000000 cycles:  226080524 heartbeat IPC: 0.14215 cumulative IPC: 0.17303 (Simulation time: 0 hr 11 min 1 sec) 
Heartbeat CPU  0 instructions:   76000000 cycles:  229221691 heartbeat IPC: 0.11887 cumulative IPC: 0.12600 (Simulation time: 0 hr 11 min 6 sec) 
Heartbeat CPU  2 instructions:   78000002 cycles:  231277328 heartbeat IPC: 0.12154 cumulative IPC: 0.12950 (Simulation time: 0 hr 11 min 9 sec) 
Heartbeat CPU  3 instructions:   90000001 cycles:  231327077 heartbeat IPC: 0.15177 cumulative IPC: 0.15292 (Simulation time: 0 hr 11 min 9 sec) 
Heartbeat CPU  1 instructions:   93000000 cycles:  233034231 heartbeat IPC: 0.14381 cumulative IPC: 0.17206 (Simulation time: 0 hr 11 min 11 sec) 
Heartbeat CPU  3 instructions:   91000003 cycles:  237323670 heartbeat IPC: 0.16676 cumulative IPC: 0.15330 (Simulation time: 0 hr 11 min 17 sec) 
Heartbeat CPU  0 instructions:   77000000 cycles:  237679781 heartbeat IPC: 0.11823 cumulative IPC: 0.12569 (Simulation time: 0 hr 11 min 18 sec) 
Heartbeat CPU  2 instructions:   79000000 cycles:  239485459 heartbeat IPC: 0.12183 cumulative IPC: 0.12921 (Simulation time: 0 hr 11 min 21 sec) 
Heartbeat CPU  1 instructions:   94000002 cycles:  240025350 heartbeat IPC: 0.14304 cumulative IPC: 0.17113 (Simulation time: 0 hr 11 min 22 sec) 
Heartbeat CPU  3 instructions:   92000000 cycles:  242560964 heartbeat IPC: 0.19094 cumulative IPC: 0.15420 (Simulation time: 0 hr 11 min 25 sec) 
Heartbeat CPU  0 instructions:   78000001 cycles:  246054490 heartbeat IPC: 0.11941 cumulative IPC: 0.12546 (Simulation time: 0 hr 11 min 30 sec) 
Heartbeat CPU  1 instructions:   95000002 cycles:  247047473 heartbeat IPC: 0.14241 cumulative IPC: 0.17023 (Simulation time: 0 hr 11 min 32 sec) 
Heartbeat CPU  2 instructions:   80000000 cycles:  247647924 heartbeat IPC: 0.12251 cumulative IPC: 0.12896 (Simulation time: 0 hr 11 min 33 sec) 
Heartbeat CPU  3 instructions:   93000000 cycles:  248860038 heartbeat IPC: 0.15875 cumulative IPC: 0.15433 (Simulation time: 0 hr 11 min 34 sec) 
Heartbeat CPU  1 instructions:   96000000 cycles:  254048677 heartbeat IPC: 0.14283 cumulative IPC: 0.16940 (Simulation time: 0 hr 11 min 41 sec) 
Heartbeat CPU  0 instructions:   79000002 cycles:  254502494 heartbeat IPC: 0.11837 cumulative IPC: 0.12520 (Simulation time: 0 hr 11 min 42 sec) 
Heartbeat CPU  3 instructions:   94000000 cycles:  255769008 heartbeat IPC: 0.14474 cumulative IPC: 0.15404 (Simulation time: 0 hr 11 min 44 sec) 
Heartbeat CPU  2 instructions:   81000003 cycles:  255860969 heartbeat IPC: 0.12176 cumulative IPC: 0.12871 (Simulation time: 0 hr 11 min 44 sec) 
Heartbeat CPU  1 instructions:   97000001 cycles:  261093984 heartbeat IPC: 0.14194 cumulative IPC: 0.16859 (Simulation time: 0 hr 11 min 51 sec) 
Heartbeat CPU  3 instructions:   95000001 cycles:  262730437 heartbeat IPC: 0.14365 cumulative IPC: 0.15374 (Simulation time: 0 hr 11 min 53 sec) 
Heartbeat CPU  0 instructions:   80000000 cycles:  262971721 heartbeat IPC: 0.11807 cumulative IPC: 0.12495 (Simulation time: 0 hr 11 min 53 sec) 
Heartbeat CPU  2 instructions:   82000002 cycles:  264085820 heartbeat IPC: 0.12158 cumulative IPC: 0.12847 (Simulation time: 0 hr 11 min 55 sec) 
Heartbeat CPU  1 instructions:   98000002 cycles:  268140685 heartbeat IPC: 0.14191 cumulative IPC: 0.16782 (Simulation time: 0 hr 12 min 0 sec) 
Heartbeat CPU  3 instructions:   96000000 cycles:  269701963 heartbeat IPC: 0.14344 cumulative IPC: 0.15345 (Simulation time: 0 hr 12 min 3 sec) 
Heartbeat CPU  0 instructions:   81000000 cycles:  271416613 heartbeat IPC: 0.11841 cumulative IPC: 0.12472 (Simulation time: 0 hr 12 min 5 sec) 
Heartbeat CPU  2 instructions:   83000001 cycles:  272577133 heartbeat IPC: 0.11777 cumulative IPC: 0.12810 (Simulation time: 0 hr 12 min 7 sec) 
Heartbeat CPU  1 instructions:   99000000 cycles:  275174365 heartbeat IPC: 0.14217 cumulative IPC: 0.16711 (Simulation time: 0 hr 12 min 10 sec) 
Heartbeat CPU  3 instructions:   97000001 cycles:  276691192 heartbeat IPC: 0.14308 cumulative IPC: 0.15317 (Simulation time: 0 hr 12 min 12 sec) 
Heartbeat CPU  0 instructions:   82000001 cycles:  280150620 heartbeat IPC: 0.11450 cumulative IPC: 0.12438 (Simulation time: 0 hr 12 min 17 sec) 
Heartbeat CPU  2 instructions:   84000000 cycles:  280908506 heartbeat IPC: 0.12003 cumulative IPC: 0.12784 (Simulation time: 0 hr 12 min 18 sec) 
*** Reached end of trace for Core: 1 Repeating trace: /data3/CLOUD9/traces/cloud9_phase2_core1.trace.xz
Heartbeat CPU  1 instructions:  100000000 cycles:  282275374 heartbeat IPC: 0.14083 cumulative IPC: 0.16639 (Simulation time: 0 hr 12 min 20 sec) 
Heartbeat CPU  3 instructions:   98000002 cycles:  283682740 heartbeat IPC: 0.14303 cumulative IPC: 0.15289 (Simulation time: 0 hr 12 min 22 sec) 
Heartbeat CPU  0 instructions:   83000001 cycles:  288623552 heartbeat IPC: 0.11802 cumulative IPC: 0.12417 (Simulation time: 0 hr 12 min 28 sec) 
Heartbeat CPU  2 instructions:   85000002 cycles:  289272615 heartbeat IPC: 0.11956 cumulative IPC: 0.12758 (Simulation time: 0 hr 12 min 29 sec) 
Heartbeat CPU  1 instructions:  101000002 cycles:  289469060 heartbeat IPC: 0.13901 cumulative IPC: 0.16565 (Simulation time: 0 hr 12 min 29 sec) 
Heartbeat CPU  3 instructions:   99000002 cycles:  290663100 heartbeat IPC: 0.14326 cumulative IPC: 0.15264 (Simulation time: 0 hr 12 min 31 sec) 
Heartbeat CPU  2 instructions:   86000000 cycles:  295172100 heartbeat IPC: 0.16951 cumulative IPC: 0.12849 (Simulation time: 0 hr 12 min 38 sec) 
Heartbeat CPU  1 instructions:  102000003 cycles:  296610504 heartbeat IPC: 0.14003 cumulative IPC: 0.16498 (Simulation time: 0 hr 12 min 40 sec) 
Heartbeat CPU  0 instructions:   84000000 cycles:  297195446 heartbeat IPC: 0.11666 cumulative IPC: 0.12394 (Simulation time: 0 hr 12 min 41 sec) 
*** Reached end of trace for Core: 3 Repeating trace: /data3/CLOUD9/traces/cloud9_phase2_core3.trace.xz
Heartbeat CPU  3 instructions:  100000000 cycles:  297653730 heartbeat IPC: 0.14305 cumulative IPC: 0.15240 (Simulation time: 0 hr 12 min 42 sec) 
Heartbeat CPU  2 instructions:   87000002 cycles:  299768674 heartbeat IPC: 0.21755 cumulative IPC: 0.12997 (Simulation time: 0 hr 12 min 45 sec) 
Heartbeat CPU  1 instructions:  103000002 cycles:  303729209 heartbeat IPC: 0.14047 cumulative IPC: 0.16436 (Simulation time: 0 hr 12 min 51 sec) 
Heartbeat CPU  3 instructions:  101000000 cycles:  303950992 heartbeat IPC: 0.15880 cumulative IPC: 0.15254 (Simulation time: 0 hr 12 min 51 sec) 
Heartbeat CPU  0 instructions:   85000003 cycles:  305816182 heartbeat IPC: 0.11600 cumulative IPC: 0.12370 (Simulation time: 0 hr 12 min 54 sec) 
Heartbeat CPU  2 instructions:   88000000 cycles:  306868225 heartbeat IPC: 0.14085 cumulative IPC: 0.13024 (Simulation time: 0 hr 12 min 55 sec) 
Heartbeat CPU  3 instructions:  102000002 cycles:  310127522 heartbeat IPC: 0.16190 cumulative IPC: 0.15274 (Simulation time: 0 hr 13 min 0 sec) 
Heartbeat CPU  0 instructions:   86000000 cycles:  310497789 heartbeat IPC: 0.21360 cumulative IPC: 0.12516 (Simulation time: 0 hr 13 min 1 sec) 
Heartbeat CPU  1 instructions:  104000000 cycles:  310826518 heartbeat IPC: 0.14090 cumulative IPC: 0.16378 (Simulation time: 0 hr 13 min 2 sec) 
Heartbeat CPU  2 instructions:   89000000 cycles:  315022314 heartbeat IPC: 0.12264 cumulative IPC: 0.13003 (Simulation time: 0 hr 13 min 8 sec) 
Heartbeat CPU  0 instructions:   87000002 cycles:  315665550 heartbeat IPC: 0.19351 cumulative IPC: 0.12637 (Simulation time: 0 hr 13 min 9 sec) 
Heartbeat CPU  3 instructions:  103000001 cycles:  316496106 heartbeat IPC: 0.15702 cumulative IPC: 0.15284 (Simulation time: 0 hr 13 min 10 sec) 
Heartbeat CPU  1 instructions:  105000003 cycles:  317893337 heartbeat IPC: 0.14151 cumulative IPC: 0.16325 (Simulation time: 0 hr 13 min 12 sec) 
Heartbeat CPU  3 instructions:  104000000 cycles:  322811583 heartbeat IPC: 0.15834 cumulative IPC: 0.15295 (Simulation time: 0 hr 13 min 19 sec) 
Heartbeat CPU  2 instructions:   90000001 cycles:  323239680 heartbeat IPC: 0.12169 cumulative IPC: 0.12980 (Simulation time: 0 hr 13 min 19 sec) 
Heartbeat CPU  0 instructions:   88000000 cycles:  323718567 heartbeat IPC: 0.12418 cumulative IPC: 0.12631 (Simulation time: 0 hr 13 min 20 sec) 
Heartbeat CPU  1 instructions:  106000002 cycles:  325022629 heartbeat IPC: 0.14027 cumulative IPC: 0.16270 (Simulation time: 0 hr 13 min 22 sec) 
Heartbeat CPU  3 instructions:  105000002 cycles:  329142966 heartbeat IPC: 0.15794 cumulative IPC: 0.15306 (Simulation time: 0 hr 13 min 28 sec) 
Heartbeat CPU  2 instructions:   91000003 cycles:  331496342 heartbeat IPC: 0.12111 cumulative IPC: 0.12957 (Simulation time: 0 hr 13 min 31 sec) 
Heartbeat CPU  0 instructions:   89000000 cycles:  332067595 heartbeat IPC: 0.11977 cumulative IPC: 0.12613 (Simulation time: 0 hr 13 min 32 sec) 
Heartbeat CPU  1 instructions:  107000000 cycles:  332123496 heartbeat IPC: 0.14083 cumulative IPC: 0.16220 (Simulation time: 0 hr 13 min 32 sec) 
Heartbeat CPU  3 instructions:  106000002 cycles:  335485111 heartbeat IPC: 0.15768 cumulative IPC: 0.15315 (Simulation time: 0 hr 13 min 36 sec) 
Heartbeat CPU  1 instructions:  108000000 cycles:  339206670 heartbeat IPC: 0.14118 cumulative IPC: 0.16173 (Simulation time: 0 hr 13 min 41 sec) 
Heartbeat CPU  2 instructions:   92000000 cycles:  339770260 heartbeat IPC: 0.12086 cumulative IPC: 0.12934 (Simulation time: 0 hr 13 min 42 sec) 
Heartbeat CPU  0 instructions:   90000001 cycles:  340433729 heartbeat IPC: 0.11953 cumulative IPC: 0.12596 (Simulation time: 0 hr 13 min 43 sec) 
Heartbeat CPU  3 instructions:  107000001 cycles:  341828358 heartbeat IPC: 0.15765 cumulative IPC: 0.15324 (Simulation time: 0 hr 13 min 45 sec) 
Heartbeat CPU  1 instructions:  109000000 cycles:  346250477 heartbeat IPC: 0.14197 cumulative IPC: 0.16130 (Simulation time: 0 hr 13 min 51 sec) 
Heartbeat CPU  2 instructions:   93000003 cycles:  348025968 heartbeat IPC: 0.12113 cumulative IPC: 0.12913 (Simulation time: 0 hr 13 min 54 sec) 
Heartbeat CPU  3 instructions:  108000000 cycles:  348163766 heartbeat IPC: 0.15784 cumulative IPC: 0.15333 (Simulation time: 0 hr 13 min 54 sec) 
Heartbeat CPU  0 instructions:   91000000 cycles:  348881792 heartbeat IPC: 0.11837 cumulative IPC: 0.12576 (Simulation time: 0 hr 13 min 55 sec) 
Heartbeat CPU  1 instructions:  110000001 cycles:  353239942 heartbeat IPC: 0.14307 cumulative IPC: 0.16092 (Simulation time: 0 hr 14 min 1 sec) 
Heartbeat CPU  3 instructions:  109000003 cycles:  354542548 heartbeat IPC: 0.15677 cumulative IPC: 0.15339 (Simulation time: 0 hr 14 min 3 sec) 
Heartbeat CPU  2 instructions:   94000003 cycles:  356240755 heartbeat IPC: 0.12173 cumulative IPC: 0.12895 (Simulation time: 0 hr 14 min 5 sec) 
Heartbeat CPU  0 instructions:   92000000 cycles:  357306566 heartbeat IPC: 0.11870 cumulative IPC: 0.12558 (Simulation time: 0 hr 14 min 7 sec) 
Heartbeat CPU  1 instructions:  111000001 cycles:  360353083 heartbeat IPC: 0.14058 cumulative IPC: 0.16049 (Simulation time: 0 hr 14 min 11 sec) 
Heartbeat CPU  3 instructions:  110000000 cycles:  360934950 heartbeat IPC: 0.15644 cumulative IPC: 0.15345 (Simulation time: 0 hr 14 min 12 sec) 
Heartbeat CPU  2 instructions:   95000000 cycles:  364480790 heartbeat IPC: 0.12136 cumulative IPC: 0.12877 (Simulation time: 0 hr 14 min 16 sec) 
Heartbeat CPU  0 instructions:   93000003 cycles:  365701310 heartbeat IPC: 0.11912 cumulative IPC: 0.12543 (Simulation time: 0 hr 14 min 18 sec) 
Heartbeat CPU  3 instructions:  111000003 cycles:  367347373 heartbeat IPC: 0.15595 cumulative IPC: 0.15350 (Simulation time: 0 hr 14 min 20 sec) 
Heartbeat CPU  1 instructions:  112000000 cycles:  367475168 heartbeat IPC: 0.14041 cumulative IPC: 0.16007 (Simulation time: 0 hr 14 min 21 sec) 
Heartbeat CPU  2 instructions:   96000000 cycles:  372751458 heartbeat IPC: 0.12091 cumulative IPC: 0.12858 (Simulation time: 0 hr 14 min 28 sec) 
Heartbeat CPU  3 instructions:  112000000 cycles:  373764543 heartbeat IPC: 0.15583 cumulative IPC: 0.15354 (Simulation time: 0 hr 14 min 29 sec) 
Heartbeat CPU  0 instructions:   94000003 cycles:  374154253 heartbeat IPC: 0.11830 cumulative IPC: 0.12525 (Simulation time: 0 hr 14 min 30 sec) 
Heartbeat CPU  1 instructions:  113000003 cycles:  374585860 heartbeat IPC: 0.14063 cumulative IPC: 0.15968 (Simulation time: 0 hr 14 min 30 sec) 
Heartbeat CPU  3 instructions:  113000000 cycles:  380199301 heartbeat IPC: 0.15541 cumulative IPC: 0.15357 (Simulation time: 0 hr 14 min 38 sec) 
Heartbeat CPU  2 instructions:   97000002 cycles:  381280443 heartbeat IPC: 0.11725 cumulative IPC: 0.12831 (Simulation time: 0 hr 14 min 40 sec) 
Heartbeat CPU  1 instructions:  114000003 cycles:  381740218 heartbeat IPC: 0.13977 cumulative IPC: 0.15928 (Simulation time: 0 hr 14 min 40 sec) 
Heartbeat CPU  0 instructions:   95000000 cycles:  382624613 heartbeat IPC: 0.11806 cumulative IPC: 0.12508 (Simulation time: 0 hr 14 min 41 sec) 
Heartbeat CPU  3 instructions:  114000003 cycles:  386696590 heartbeat IPC: 0.15391 cumulative IPC: 0.15358 (Simulation time: 0 hr 14 min 47 sec) 
Heartbeat CPU  1 instructions:  115000002 cycles:  388833108 heartbeat IPC: 0.14099 cumulative IPC: 0.15893 (Simulation time: 0 hr 14 min 50 sec) 
Heartbeat CPU  2 instructions:   98000003 cycles:  389556308 heartbeat IPC: 0.12083 cumulative IPC: 0.12814 (Simulation time: 0 hr 14 min 51 sec) 
Heartbeat CPU  0 instructions:   96000000 cycles:  391056655 heartbeat IPC: 0.11860 cumulative IPC: 0.12494 (Simulation time: 0 hr 14 min 53 sec) 
Heartbeat CPU  3 instructions:  115000002 cycles:  393153261 heartbeat IPC: 0.15488 cumulative IPC: 0.15360 (Simulation time: 0 hr 14 min 56 sec) 
Heartbeat CPU  1 instructions:  116000000 cycles:  395854534 heartbeat IPC: 0.14242 cumulative IPC: 0.15862 (Simulation time: 0 hr 15 min 0 sec) 
Heartbeat CPU  2 instructions:   99000001 cycles:  397944204 heartbeat IPC: 0.11922 cumulative IPC: 0.12794 (Simulation time: 0 hr 15 min 2 sec) 
Heartbeat CPU  3 instructions:  116000000 cycles:  399585162 heartbeat IPC: 0.15547 cumulative IPC: 0.15364 (Simulation time: 0 hr 15 min 5 sec) 
Heartbeat CPU  0 instructions:   97000000 cycles:  399781081 heartbeat IPC: 0.11462 cumulative IPC: 0.12470 (Simulation time: 0 hr 15 min 5 sec) 
Heartbeat CPU  1 instructions:  117000003 cycles:  402944324 heartbeat IPC: 0.14105 cumulative IPC: 0.15829 (Simulation time: 0 hr 15 min 9 sec) 
Heartbeat CPU  3 instructions:  117000001 cycles:  406036743 heartbeat IPC: 0.15500 cumulative IPC: 0.15366 (Simulation time: 0 hr 15 min 13 sec) 
*** Reached end of trace for Core: 2 Repeating trace: /data3/CLOUD9/traces/cloud9_phase2_core2.trace.xz
Heartbeat CPU  2 instructions:  100000000 cycles:  406323206 heartbeat IPC: 0.11935 cumulative IPC: 0.12776 (Simulation time: 0 hr 15 min 14 sec) 
Heartbeat CPU  0 instructions:   98000003 cycles:  408288139 heartbeat IPC: 0.11755 cumulative IPC: 0.12454 (Simulation time: 0 hr 15 min 17 sec) 
Heartbeat CPU  1 instructions:  118000001 cycles:  410008609 heartbeat IPC: 0.14156 cumulative IPC: 0.15798 (Simulation time: 0 hr 15 min 19 sec) 
Heartbeat CPU  3 instructions:  118000002 cycles:  412470730 heartbeat IPC: 0.15542 cumulative IPC: 0.15369 (Simulation time: 0 hr 15 min 22 sec) 
Heartbeat CPU  2 instructions:  101000002 cycles:  414518256 heartbeat IPC: 0.12203 cumulative IPC: 0.12764 (Simulation time: 0 hr 15 min 25 sec) 
Heartbeat CPU  0 instructions:   99000003 cycles:  416877283 heartbeat IPC: 0.11643 cumulative IPC: 0.12436 (Simulation time: 0 hr 15 min 28 sec) 
Heartbeat CPU  1 instructions:  119000001 cycles:  417109547 heartbeat IPC: 0.14083 cumulative IPC: 0.15767 (Simulation time: 0 hr 15 min 29 sec) 
Heartbeat CPU  3 instructions:  119000002 cycles:  418914100 heartbeat IPC: 0.15520 cumulative IPC: 0.15371 (Simulation time: 0 hr 15 min 31 sec) 
Heartbeat CPU  2 instructions:  102000001 cycles:  422730420 heartbeat IPC: 0.12177 cumulative IPC: 0.12752 (Simulation time: 0 hr 15 min 36 sec) 
Heartbeat CPU  1 instructions:  120000000 cycles:  424241411 heartbeat IPC: 0.14022 cumulative IPC: 0.15736 (Simulation time: 0 hr 15 min 39 sec) 
*** Reached end of trace for Core: 0 Repeating trace: /data3/CLOUD9/traces/cloud9_phase2_core0.trace.xz
Heartbeat CPU  0 instructions:  100000000 cycles:  424290108 heartbeat IPC: 0.13490 cumulative IPC: 0.12456 (Simulation time: 0 hr 15 min 39 sec) 
Heartbeat CPU  3 instructions:  120000000 cycles:  425389963 heartbeat IPC: 0.15442 cumulative IPC: 0.15372 (Simulation time: 0 hr 15 min 40 sec) 
Heartbeat CPU  2 instructions:  103000003 cycles:  430964654 heartbeat IPC: 0.12144 cumulative IPC: 0.12739 (Simulation time: 0 hr 15 min 48 sec) 
Heartbeat CPU  1 instructions:  121000000 cycles:  431296396 heartbeat IPC: 0.14174 cumulative IPC: 0.15709 (Simulation time: 0 hr 15 min 48 sec) 
Heartbeat CPU  3 instructions:  121000003 cycles:  431848857 heartbeat IPC: 0.15483 cumulative IPC: 0.15374 (Simulation time: 0 hr 15 min 49 sec) 
Heartbeat CPU  0 instructions:  101000000 cycles:  432650011 heartbeat IPC: 0.11962 cumulative IPC: 0.12446 (Simulation time: 0 hr 15 min 50 sec) 
Heartbeat CPU  3 instructions:  122000002 cycles:  438303099 heartbeat IPC: 0.15494 cumulative IPC: 0.15376 (Simulation time: 0 hr 15 min 58 sec) 
Heartbeat CPU  1 instructions:  122000003 cycles:  438367451 heartbeat IPC: 0.14142 cumulative IPC: 0.15683 (Simulation time: 0 hr 15 min 58 sec) 
Heartbeat CPU  2 instructions:  104000000 cycles:  439189147 heartbeat IPC: 0.12159 cumulative IPC: 0.12728 (Simulation time: 0 hr 15 min 59 sec) 
Heartbeat CPU  0 instructions:  102000002 cycles:  441008858 heartbeat IPC: 0.11963 cumulative IPC: 0.12436 (Simulation time: 0 hr 16 min 2 sec) 
Heartbeat CPU  3 instructions:  123000001 cycles:  444782514 heartbeat IPC: 0.15433 cumulative IPC: 0.15377 (Simulation time: 0 hr 16 min 7 sec) 
Heartbeat CPU  1 instructions:  123000001 cycles:  445505400 heartbeat IPC: 0.14010 cumulative IPC: 0.15655 (Simulation time: 0 hr 16 min 8 sec) 
Heartbeat CPU  2 instructions:  105000002 cycles:  447527606 heartbeat IPC: 0.11993 cumulative IPC: 0.12713 (Simulation time: 0 hr 16 min 10 sec) 
Heartbeat CPU  0 instructions:  103000002 cycles:  449465851 heartbeat IPC: 0.11825 cumulative IPC: 0.12424 (Simulation time: 0 hr 16 min 13 sec) 
Heartbeat CPU  3 instructions:  124000000 cycles:  451269409 heartbeat IPC: 0.15416 cumulative IPC: 0.15377 (Simulation time: 0 hr 16 min 16 sec) 
Heartbeat CPU  1 instructions:  124000000 cycles:  452619799 heartbeat IPC: 0.14056 cumulative IPC: 0.15628 (Simulation time: 0 hr 16 min 17 sec) 
Heartbeat CPU  2 instructions:  106000000 cycles:  455726725 heartbeat IPC: 0.12196 cumulative IPC: 0.12704 (Simulation time: 0 hr 16 min 22 sec) 
Heartbeat CPU  3 instructions:  125000000 cycles:  457716894 heartbeat IPC: 0.15510 cumulative IPC: 0.15379 (Simulation time: 0 hr 16 min 24 sec) 
Heartbeat CPU  0 instructions:  104000000 cycles:  457898596 heartbeat IPC: 0.11859 cumulative IPC: 0.12413 (Simulation time: 0 hr 16 min 25 sec) 
Heartbeat CPU  1 instructions:  125000002 cycles:  459750996 heartbeat IPC: 0.14023 cumulative IPC: 0.15602 (Simulation time: 0 hr 16 min 27 sec) 
Heartbeat CPU  2 instructions:  107000001 cycles:  464015728 heartbeat IPC: 0.12064 cumulative IPC: 0.12692 (Simulation time: 0 hr 16 min 33 sec) 
Heartbeat CPU  3 instructions:  126000003 cycles:  464167392 heartbeat IPC: 0.15503 cumulative IPC: 0.15381 (Simulation time: 0 hr 16 min 33 sec) 
Heartbeat CPU  0 instructions:  105000003 cycles:  466279319 heartbeat IPC: 0.11932 cumulative IPC: 0.12404 (Simulation time: 0 hr 16 min 36 sec) 
Heartbeat CPU  1 instructions:  126000003 cycles:  468261262 heartbeat IPC: 0.11751 cumulative IPC: 0.15528 (Simulation time: 0 hr 16 min 39 sec) 
Heartbeat CPU  3 instructions:  127000001 cycles:  470610639 heartbeat IPC: 0.15520 cumulative IPC: 0.15383 (Simulation time: 0 hr 16 min 42 sec) 
Heartbeat CPU  2 instructions:  108000000 cycles:  472295673 heartbeat IPC: 0.12077 cumulative IPC: 0.12680 (Simulation time: 0 hr 16 min 44 sec) 
Heartbeat CPU  0 instructions:  106000003 cycles:  474727903 heartbeat IPC: 0.11836 cumulative IPC: 0.12393 (Simulation time: 0 hr 16 min 48 sec) 
Heartbeat CPU  1 instructions:  127000003 cycles:  475371737 heartbeat IPC: 0.14064 cumulative IPC: 0.15505 (Simulation time: 0 hr 16 min 48 sec) 
Heartbeat CPU  3 instructions:  128000000 cycles:  476921304 heartbeat IPC: 0.15846 cumulative IPC: 0.15390 (Simulation time: 0 hr 16 min 51 sec) 
Heartbeat CPU  2 instructions:  109000001 cycles:  480801918 heartbeat IPC: 0.11756 cumulative IPC: 0.12663 (Simulation time: 0 hr 16 min 56 sec) 
Heartbeat CPU  1 instructions:  128000000 cycles:  482475746 heartbeat IPC: 0.14077 cumulative IPC: 0.15483 (Simulation time: 0 hr 16 min 58 sec) 
Heartbeat CPU  0 instructions:  107000001 cycles:  483219361 heartbeat IPC: 0.11777 cumulative IPC: 0.12382 (Simulation time: 0 hr 16 min 59 sec) 
Heartbeat CPU  3 instructions:  129000000 cycles:  483392319 heartbeat IPC: 0.15454 cumulative IPC: 0.15391 (Simulation time: 0 hr 16 min 59 sec) 
Heartbeat CPU  2 instructions:  110000002 cycles:  489115433 heartbeat IPC: 0.12029 cumulative IPC: 0.12652 (Simulation time: 0 hr 17 min 7 sec) 
Heartbeat CPU  1 instructions:  129000002 cycles:  489552587 heartbeat IPC: 0.14131 cumulative IPC: 0.15463 (Simulation time: 0 hr 17 min 8 sec) 
Heartbeat CPU  3 instructions:  130000000 cycles:  489838067 heartbeat IPC: 0.15514 cumulative IPC: 0.15392 (Simulation time: 0 hr 17 min 8 sec) 
Heartbeat CPU  0 instructions:  108000000 cycles:  491679321 heartbeat IPC: 0.11820 cumulative IPC: 0.12372 (Simulation time: 0 hr 17 min 11 sec) 
Heartbeat CPU  3 instructions:  131000000 cycles:  496291113 heartbeat IPC: 0.15497 cumulative IPC: 0.15394 (Simulation time: 0 hr 17 min 17 sec) 
Heartbeat CPU  1 instructions:  130000003 cycles:  496664604 heartbeat IPC: 0.14061 cumulative IPC: 0.15442 (Simulation time: 0 hr 17 min 18 sec) 
Heartbeat CPU  2 instructions:  111000001 cycles:  497500040 heartbeat IPC: 0.11927 cumulative IPC: 0.12639 (Simulation time: 0 hr 17 min 19 sec) 
Heartbeat CPU  0 instructions:  109000000 cycles:  500395416 heartbeat IPC: 0.11473 cumulative IPC: 0.12355 (Simulation time: 0 hr 17 min 23 sec) 
Heartbeat CPU  3 instructions:  132000000 cycles:  502765698 heartbeat IPC: 0.15445 cumulative IPC: 0.15394 (Simulation time: 0 hr 17 min 26 sec) 
Heartbeat CPU  1 instructions:  131000002 cycles:  503749591 heartbeat IPC: 0.14114 cumulative IPC: 0.15422 (Simulation time: 0 hr 17 min 27 sec) 
Heartbeat CPU  2 instructions:  112000000 cycles:  505422146 heartbeat IPC: 0.12623 cumulative IPC: 0.12639 (Simulation time: 0 hr 17 min 30 sec) 
Heartbeat CPU  0 instructions:  110000000 cycles:  508910520 heartbeat IPC: 0.11744 cumulative IPC: 0.12345 (Simulation time: 0 hr 17 min 35 sec) 
Heartbeat CPU  3 instructions:  133000000 cycles:  509234556 heartbeat IPC: 0.15459 cumulative IPC: 0.15395 (Simulation time: 0 hr 17 min 36 sec) 
Heartbeat CPU  2 instructions:  113000001 cycles:  509839409 heartbeat IPC: 0.22638 cumulative IPC: 0.12729 (Simulation time: 0 hr 17 min 37 sec) 
Heartbeat CPU  1 instructions:  132000000 cycles:  510791059 heartbeat IPC: 0.14202 cumulative IPC: 0.15404 (Simulation time: 0 hr 17 min 38 sec) 
Heartbeat CPU  2 instructions:  114000003 cycles:  515180692 heartbeat IPC: 0.18722 cumulative IPC: 0.12794 (Simulation time: 0 hr 17 min 45 sec) 
Heartbeat CPU  3 instructions:  134000000 cycles:  515720124 heartbeat IPC: 0.15419 cumulative IPC: 0.15396 (Simulation time: 0 hr 17 min 45 sec) 
Heartbeat CPU  0 instructions:  111000000 cycles:  517467623 heartbeat IPC: 0.11686 cumulative IPC: 0.12333 (Simulation time: 0 hr 17 min 48 sec) 
Heartbeat CPU  1 instructions:  133000002 cycles:  517904957 heartbeat IPC: 0.14057 cumulative IPC: 0.15385 (Simulation time: 0 hr 17 min 48 sec) 
Heartbeat CPU  3 instructions:  135000003 cycles:  522224689 heartbeat IPC: 0.15374 cumulative IPC: 0.15395 (Simulation time: 0 hr 17 min 54 sec) 
Heartbeat CPU  2 instructions:  115000003 cycles:  523394891 heartbeat IPC: 0.12174 cumulative IPC: 0.12784 (Simulation time: 0 hr 17 min 56 sec) 
Heartbeat CPU  0 instructions:  112000000 cycles:  524715193 heartbeat IPC: 0.13798 cumulative IPC: 0.12354 (Simulation time: 0 hr 17 min 58 sec) 
Heartbeat CPU  1 instructions:  134000002 cycles:  525044588 heartbeat IPC: 0.14006 cumulative IPC: 0.15366 (Simulation time: 0 hr 17 min 58 sec) 
Heartbeat CPU  3 instructions:  136000000 cycles:  528761636 heartbeat IPC: 0.15298 cumulative IPC: 0.15394 (Simulation time: 0 hr 18 min 4 sec) 
Heartbeat CPU  0 instructions:  113000003 cycles:  529380109 heartbeat IPC: 0.21437 cumulative IPC: 0.12438 (Simulation time: 0 hr 18 min 5 sec) 
Heartbeat CPU  2 instructions:  116000000 cycles:  531559106 heartbeat IPC: 0.12249 cumulative IPC: 0.12776 (Simulation time: 0 hr 18 min 8 sec) 
Heartbeat CPU  1 instructions:  135000000 cycles:  532187299 heartbeat IPC: 0.14000 cumulative IPC: 0.15346 (Simulation time: 0 hr 18 min 9 sec) 
Heartbeat CPU  3 instructions:  137000003 cycles:  535285044 heartbeat IPC: 0.15329 cumulative IPC: 0.15393 (Simulation time: 0 hr 18 min 14 sec) 
Heartbeat CPU  0 instructions:  114000002 cycles:  535764135 heartbeat IPC: 0.15664 cumulative IPC: 0.12478 (Simulation time: 0 hr 18 min 14 sec) 
Heartbeat CPU  1 instructions:  136000000 cycles:  539377718 heartbeat IPC: 0.13907 cumulative IPC: 0.15326 (Simulation time: 0 hr 18 min 19 sec) 
Heartbeat CPU  2 instructions:  117000001 cycles:  539760891 heartbeat IPC: 0.12192 cumulative IPC: 0.12766 (Simulation time: 0 hr 18 min 20 sec) 
Heartbeat CPU  3 instructions:  138000003 cycles:  541849034 heartbeat IPC: 0.15235 cumulative IPC: 0.15391 (Simulation time: 0 hr 18 min 23 sec) 
Heartbeat CPU  0 instructions:  115000000 cycles:  544008216 heartbeat IPC: 0.12130 cumulative IPC: 0.12473 (Simulation time: 0 hr 18 min 26 sec) 
Heartbeat CPU  1 instructions:  137000000 cycles:  545336255 heartbeat IPC: 0.16783 cumulative IPC: 0.15343 (Simulation time: 0 hr 18 min 28 sec) 
Heartbeat CPU  2 instructions:  118000001 cycles:  548014007 heartbeat IPC: 0.12117 cumulative IPC: 0.12756 (Simulation time: 0 hr 18 min 32 sec) 
Heartbeat CPU  3 instructions:  139000001 cycles:  548403378 heartbeat IPC: 0.15257 cumulative IPC: 0.15389 (Simulation time: 0 hr 18 min 32 sec) 
Heartbeat CPU  1 instructions:  138000002 cycles:  551370007 heartbeat IPC: 0.16573 cumulative IPC: 0.15357 (Simulation time: 0 hr 18 min 37 sec) 
Heartbeat CPU  0 instructions:  116000000 cycles:  552358764 heartbeat IPC: 0.11975 cumulative IPC: 0.12465 (Simulation time: 0 hr 18 min 38 sec) 
Heartbeat CPU  3 instructions:  140000000 cycles:  555035451 heartbeat IPC: 0.15078 cumulative IPC: 0.15386 (Simulation time: 0 hr 18 min 42 sec) 
Heartbeat CPU  2 instructions:  119000001 cycles:  556335663 heartbeat IPC: 0.12017 cumulative IPC: 0.12745 (Simulation time: 0 hr 18 min 44 sec) 
Heartbeat CPU  1 instructions:  139000002 cycles:  558015711 heartbeat IPC: 0.15047 cumulative IPC: 0.15353 (Simulation time: 0 hr 18 min 46 sec) 
Heartbeat CPU  0 instructions:  117000002 cycles:  560653704 heartbeat IPC: 0.12056 cumulative IPC: 0.12458 (Simulation time: 0 hr 18 min 50 sec) 
Heartbeat CPU  3 instructions:  141000000 cycles:  561639062 heartbeat IPC: 0.15143 cumulative IPC: 0.15383 (Simulation time: 0 hr 18 min 52 sec) 
Heartbeat CPU  2 instructions:  120000000 cycles:  564571712 heartbeat IPC: 0.12142 cumulative IPC: 0.12735 (Simulation time: 0 hr 18 min 56 sec) 
[...]
Core_2_LLC_wq_to_cache 1891676
Core_2_LLC_wq_full 0

Core_2_LLC_pq_access 5163134
Core_2_LLC_pq_forward 0
Core_2_LLC_pq_merged 62084
Core_2_LLC_pq_to_cache 5101050
Core_2_LLC_pq_full 0

Core_2_LLC_acc_epochs 1197816
Core_2_LLC_acc_level_0 901988
Core_2_LLC_acc_level_1 89637
Core_2_LLC_acc_level_2 70317
Core_2_LLC_acc_level_3 25418
Core_2_LLC_acc_level_4 8792
Core_2_LLC_acc_level_5 57047
Core_2_LLC_acc_level_6 11419
Core_2_LLC_acc_level_7 10004
Core_2_LLC_acc_level_8 3879
Core_2_LLC_acc_level_9 19315

Core_2_major_page_fault 0
Core_2_minor_page_fault 1756

Core_3_instructions 150000000
Core_3_cycles 977912803
Core_3_IPC 0.15339

Core_3_branch_prediction_accuracy 99.56453
Core_3_branch_MPKI 0.90218
Core_3_average_ROB_occupancy_at_mispredict 219.90342

Core_3_L1D_total_access 23352224
Core_3_L1D_total_hit 22973973
Core_3_L1D_total_miss 378251
Core_3_L1D_loads 13923718
Core_3_L1D_load_hit 13550557
Core_3_L1D_load_miss 373161
Core_3_L1D_RFOs 9428506
Core_3_L1D_RFO_hit 9423416
Core_3_L1D_RFO_miss 5090
Core_3_L1D_prefetches 0
Core_3_L1D_prefetch_hit 0
Core_3_L1D_prefetch_miss 0
Core_3_L1D_writebacks 0
Core_3_L1D_writeback_hit 0
Core_3_L1D_writeback_miss 0
Core_3_L1D_prefetch_requested 0
Core_3_L1D_prefetch_dropped 0
Core_3_L1D_prefetch_issued 0
Core_3_L1D_prefetch_filled 0
Core_3_L1D_prefetch_useful 0
Core_3_L1D_prefetch_useless 0
Core_3_L1D_prefetch_late 0
Core_3_L1D_average_miss_latency 191.64909

Core_3_L1D_rq_access 25286927
Core_3_L1D_rq_forward 0
Core_3_L1D_rq_merged 8086250
Core_3_L1D_rq_to_cache 17200290
Core_3_L1D_rq_full 0

Core_3_L1D_wq_access 11839983
Core_3_L1D_wq_forward 387
Core_3_L1D_wq_merged 188505
Core_3_L1D_wq_to_cache 11651478
Core_3_L1D_wq_full 0

Core_3_L1D_pq_access 0
Core_3_L1D_pq_forward 0
Core_3_L1D_pq_merged 0
Core_3_L1D_pq_to_cache 0
Core_3_L1D_pq_full 0

Core_3_L1D_acc_epochs 199650
Core_3_L1D_acc_level_0 199650
Core_3_L1D_acc_level_1 0
Core_3_L1D_acc_level_2 0
Core_3_L1D_acc_level_3 0
Core_3_L1D_acc_level_4 0
Core_3_L1D_acc_level_5 0
Core_3_L1D_acc_level_6 0
Core_3_L1D_acc_level_7 0
Core_3_L1D_acc_level_8 0
Core_3_L1D_acc_level_9 0

Core_3_L1I_total_access 41007258
Core_3_L1I_total_hit 41003585
Core_3_L1I_total_miss 3673
Core_3_L1I_loads 41007258
Core_3_L1I_load_hit 41003585
Core_3_L1I_load_miss 3673
Core_3_L1I_RFOs 0
Core_3_L1I_RFO_hit 0
Core_3_L1I_RFO_miss 0
Core_3_L1I_prefetches 0
Core_3_L1I_prefetch_hit 0
Core_3_L1I_prefetch_miss 0
Core_3_L1I_writebacks 0
Core_3_L1I_writeback_hit 0
Core_3_L1I_writeback_miss 0
Core_3_L1I_prefetch_requested 0
Core_3_L1I_prefetch_dropped 0
Core_3_L1I_prefetch_issued 0
Core_3_L1I_prefetch_filled 0
Core_3_L1I_prefetch_useful 0
Core_3_L1I_prefetch_useless 0
Core_3_L1I_prefetch_late 0
Core_3_L1I_average_miss_latency 226.36782

Core_3_L1I_rq_access 184871731
Core_3_L1I_rq_forward 0
Core_3_L1I_rq_merged 134329035
Core_3_L1I_rq_to_cache 50542696
Core_3_L1I_rq_full 0

Core_3_L1I_wq_access 0
Core_3_L1I_wq_forward 0
Core_3_L1I_wq_merged 0
Core_3_L1I_wq_to_cache 0
Core_3_L1I_wq_full 0

Core_3_L1I_pq_access 0
Core_3_L1I_pq_forward 0
Core_3_L1I_pq_merged 0
Core_3_L1I_pq_to_cache 0
Core_3_L1I_pq_full 0

Core_3_L1I_acc_epochs 199650
Core_3_L1I_acc_level_0 199650
Core_3_L1I_acc_level_1 0
Core_3_L1I_acc_level_2 0
Core_3_L1I_acc_level_3 0
Core_3_L1I_acc_level_4 0
Core_3_L1I_acc_level_5 0
Core_3_L1I_acc_level_6 0
Core_3_L1I_acc_level_7 0
Core_3_L1I_acc_level_8 0
Core_3_L1I_acc_level_9 0

Core_3_L2C_total_access 647139
Core_3_L2C_total_hit 302613
Core_3_L2C_total_miss 344526
Core_3_L2C_loads 376834
Core_3_L2C_load_hit 83766
Core_3_L2C_load_miss 293068
Core_3_L2C_RFOs 5088
Core_3_L2C_RFO_hit 2127
Core_3_L2C_RFO_miss 2961
Core_3_L2C_prefetches 70528
Core_3_L2C_prefetch_hit 22574
Core_3_L2C_prefetch_miss 47954
Core_3_L2C_writebacks 194689
Core_3_L2C_writeback_hit 194146
Core_3_L2C_writeback_miss 543
Core_3_L2C_prefetch_requested 614677
Core_3_L2C_prefetch_dropped 0
Core_3_L2C_prefetch_issued 614677
Core_3_L2C_prefetch_filled 72600
Core_3_L2C_prefetch_useful 69117
Core_3_L2C_prefetch_useless 3462
Core_3_L2C_prefetch_late 1287
Core_3_L2C_average_miss_latency 162.75863

Core_3_L2C_rq_access 457809
Core_3_L2C_rq_forward 0
Core_3_L2C_rq_merged 0
Core_3_L2C_rq_to_cache 457807
Core_3_L2C_rq_full 0

Core_3_L2C_wq_access 228268
Core_3_L2C_wq_forward 2
Core_3_L2C_wq_merged 0
Core_3_L2C_wq_to_cache 228268
Core_3_L2C_wq_full 0

Core_3_L2C_pq_access 614677
Core_3_L2C_pq_forward 0
Core_3_L2C_pq_merged 5491
Core_3_L2C_pq_to_cache 609186
Core_3_L2C_pq_full 0

Core_3_L2C_acc_epochs 199650
Core_3_L2C_acc_level_0 121237
Core_3_L2C_acc_level_1 19404
Core_3_L2C_acc_level_2 17541
Core_3_L2C_acc_level_3 6315
Core_3_L2C_acc_level_4 1802
Core_3_L2C_acc_level_5 16271
Core_3_L2C_acc_level_6 3538
Core_3_L2C_acc_level_7 2650
Core_3_L2C_acc_level_8 1674
Core_3_L2C_acc_level_9 9218

Core_3_LLC_total_access 840609
Core_3_LLC_total_hit 598385
Core_3_LLC_total_miss 242224
Core_3_LLC_loads 291929
Core_3_LLC_load_hit 151017
Core_3_LLC_load_miss 140912
Core_3_LLC_RFOs 2961
Core_3_LLC_RFO_hit 1482
Core_3_LLC_RFO_miss 1479
Core_3_LLC_prefetches 361350
Core_3_LLC_prefetch_hit 269804
Core_3_LLC_prefetch_miss 91546
Core_3_LLC_writebacks 184369
Core_3_LLC_writeback_hit 176082
Core_3_LLC_writeback_miss 8287
Core_3_LLC_prefetch_requested 0
Core_3_LLC_prefetch_dropped 0
Core_3_LLC_prefetch_issued 0
Core_3_LLC_prefetch_filled 662842
Core_3_LLC_prefetch_useful 375641
Core_3_LLC_prefetch_useless 273523
Core_3_LLC_prefetch_late 5975
Core_3_LLC_average_miss_latency 1215.22866

Core_3_LLC_rq_access 2674385
Core_3_LLC_rq_forward 0
Core_3_LLC_rq_merged 0
Core_3_LLC_rq_to_cache 2674380
Core_3_LLC_rq_full 0

Core_3_LLC_wq_access 1891676
Core_3_LLC_wq_forward 5
Core_3_LLC_wq_merged 0
Core_3_LLC_wq_to_cache 1891676
Core_3_LLC_wq_full 0

Core_3_LLC_pq_access 5163134
Core_3_LLC_pq_forward 0
Core_3_LLC_pq_merged 62084
Core_3_LLC_pq_to_cache 5101050
Core_3_LLC_pq_full 0

Core_3_LLC_acc_epochs 1197816
Core_3_LLC_acc_level_0 901988
Core_3_LLC_acc_level_1 89637
Core_3_LLC_acc_level_2 70317
Core_3_LLC_acc_level_3 25418
Core_3_LLC_acc_level_4 8792
Core_3_LLC_acc_level_5 57047
Core_3_LLC_acc_level_6 11419
Core_3_LLC_acc_level_7 10004
Core_3_LLC_acc_level_8 3879
Core_3_LLC_acc_level_9 19315

Core_3_major_page_fault 0
Core_3_minor_page_fault 2150

spp.pref.total 2274618
spp.pref.at_L2 297809
spp.pref.at_LLC 1976809

spp.depth.max 9
spp.depth.min 0
spp.depth.avg 1

spp.breadth.max 2
spp.breadth.min 0
spp.breadth.avg 0

delta_-2 670960
delta_1 661218
delta_-1 424249
delta_-12 415436
delta_2 146536
delta_4 3061
delta_6 743
delta_-5 389
delta_-8 361
delta_3 307
delta_5 284
delta_25 217
delta_46 211
delta_49 152
delta_-7 127
delta_13 91
delta_53 81
delta_47 73
delta_7 56
delta_54 46
delta_16 45
delta_50 38
delta_-6 30
delta_15 29
delta_11 23
delta_58 15
delta_12 12
delta_-32 11
delta_10 10
delta_28 9
delta_35 7
delta_-63 6
delta_-17 6
delta_-11 6
delta_-23 5
delta_-3 5
delta_27 5
delta_8 5
delta_32 4
delta_18 3
delta_-18 2
delta_52 2
delta_22 1
delta_-43 1
delta_-19 1
delta_34 1

depth_1_delta_-12 220346
depth_1_delta_1 162981
depth_1_delta_-2 144737
depth_1_delta_-1 93175
depth_1_delta_2 46878
depth_1_delta_4 3042
depth_1_delta_6 737
depth_1_delta_-5 378
depth_1_delta_-8 355
depth_1_delta_3 307
depth_1_delta_5 284
depth_1_delta_25 192
depth_1_delta_46 182
depth_1_delta_49 140
depth_1_delta_-7 127
depth_1_delta_13 90
depth_1_delta_53 69
depth_1_delta_47 64
depth_1_delta_7 56
depth_1_delta_16 45
depth_1_delta_54 45
depth_1_delta_50 38
depth_1_delta_-6 30
depth_1_delta_15 29
depth_1_delta_11 23
depth_1_delta_58 15
depth_1_delta_12 12
depth_1_delta_-32 11
depth_1_delta_10 10
depth_1_delta_28 9
depth_1_delta_35 7
depth_1_delta_-63 6
depth_1_delta_-17 6
depth_1_delta_-11 6
depth_1_delta_-23 5
depth_1_delta_-3 5
depth_1_delta_27 5
depth_1_delta_8 5
depth_1_delta_32 4
depth_1_delta_18 3
depth_1_delta_-18 2
depth_1_delta_52 2
depth_1_delta_22 1
depth_1_delta_-43 1
depth_1_delta_-19 1
depth_1_delta_34 1
depth_2_delta_1 149971
depth_2_delta_-2 134731
depth_2_delta_-12 114609
depth_2_delta_-1 85721
depth_2_delta_2 41118
depth_2_delta_46 26
depth_2_delta_25 25
depth_2_delta_4 19
depth_2_delta_53 12
depth_2_delta_-5 11
depth_2_delta_49 10
depth_2_delta_47 9
depth_2_delta_6 6
depth_2_delta_-8 6
depth_2_delta_13 1
depth_2_delta_54 1
depth_3_delta_1 141460
depth_3_delta_-2 131436
depth_3_delta_-1 80615
depth_3_delta_-12 59238
depth_3_delta_2 38143
depth_3_delta_46 3
depth_3_delta_49 2
depth_4_delta_-2 118391
depth_4_delta_1 108833
depth_4_delta_-1 73330
depth_4_delta_-12 21225
depth_4_delta_2 19700
depth_5_delta_-2 92350
depth_5_delta_1 61612
depth_5_delta_-1 53911
depth_5_delta_2 650
depth_5_delta_-12 18
depth_6_delta_-2 42911
depth_6_delta_1 30285
depth_6_delta_-1 27136
depth_6_delta_2 47
depth_7_delta_-1 9941
depth_7_delta_-2 6308
depth_7_delta_1 5985
depth_8_delta_-1 405
depth_8_delta_-2 96
depth_8_delta_1 90
depth_9_delta_-1 15
depth_9_delta_1 1

spp.pref.total 835508
spp.pref.at_L2 89327
spp.pref.at_LLC 746181

spp.depth.max 10
spp.depth.min 0
spp.depth.avg 0

spp.breadth.max 2
spp.breadth.min 0
spp.breadth.avg 0

delta_1 704898
delta_-1 183368
delta_2 71567
delta_-2 45123
delta_-12 24578
delta_-51 17215
delta_50 16282
delta_7 10797
delta_-3 7120
delta_34 5876
delta_5 4270
delta_-36 3856
delta_8 2612
delta_-5 2501
delta_-59 2243
delta_-10 2222
delta_-9 2047
delta_4 1857
delta_51 1690
delta_15 1528
delta_25 1429
delta_3 1286
delta_10 1280
delta_6 1274
delta_-14 987
delta_-4 854
delta_-20 807
delta_16 778
delta_20 774
delta_-17 714
delta_-18 635
delta_12 615
delta_-24 551
delta_-15 540
delta_13 523
delta_9 493
delta_-25 474
delta_19 452
delta_11 447
delta_-6 420
delta_18 413
delta_14 385
delta_-55 344
delta_-37 341
delta_24 340
delta_17 337
delta_-13 333
delta_-11 332
delta_26 318
delta_-8 314
delta_-28 298
delta_28 297
delta_-29 296
delta_27 288
delta_-31 288
delta_21 233
delta_36 232
delta_30 227
delta_22 224
delta_-7 208
delta_-22 206
delta_-53 204
delta_-54 202
delta_29 191
delta_-30 181
delta_38 177
delta_-39 169
delta_-34 164
delta_-27 153
delta_-16 150
delta_-19 150
delta_-41 146
delta_-21 135
delta_46 129
delta_47 128
delta_41 125
delta_-26 115
delta_-45 110
delta_40 97
delta_-46 94
delta_-35 75
delta_-33 68
delta_31 62
delta_42 62
delta_-52 54
delta_35 53
delta_-23 52
delta_32 46
delta_-38 32
delta_49 28
delta_-32 24
delta_-58 19
delta_55 14
delta_58 10
delta_-56 9
delta_-44 8
delta_-50 4
delta_23 2
delta_-48 1
delta_33 1

depth_1_delta_1 233097
depth_1_delta_-1 86465
depth_1_delta_2 34140
depth_1_delta_-2 24744
depth_1_delta_-12 12442
depth_1_delta_7 9962
depth_1_delta_-51 8507
depth_1_delta_50 7696
depth_1_delta_34 5389
depth_1_delta_-3 4275
depth_1_delta_5 4076
depth_1_delta_-36 2912
depth_1_delta_8 2585
depth_1_delta_-5 2324
depth_1_delta_-10 2120
depth_1_delta_-9 2047
depth_1_delta_51 1676
depth_1_delta_4 1602
depth_1_delta_25 1423
depth_1_delta_15 1402
depth_1_delta_-59 1357
depth_1_delta_10 1252
depth_1_delta_6 1220
depth_1_delta_3 1201
depth_1_delta_-14 863
depth_1_delta_-4 852
depth_1_delta_-20 805
depth_1_delta_20 768
depth_1_delta_-17 693
depth_1_delta_16 674
depth_1_delta_-18 630
depth_1_delta_12 615
depth_1_delta_-15 540
depth_1_delta_13 499
depth_1_delta_-24 471
depth_1_delta_19 452
depth_1_delta_9 451
depth_1_delta_11 447
depth_1_delta_-6 418
depth_1_delta_18 407
depth_1_delta_-25 394
depth_1_delta_-55 344
depth_1_delta_24 340
depth_1_delta_17 336
depth_1_delta_14 334
depth_1_delta_-13 333
depth_1_delta_-11 330
depth_1_delta_-37 316
depth_1_delta_26 315
depth_1_delta_-29 295
depth_1_delta_27 288
depth_1_delta_-8 287
depth_1_delta_-28 274
depth_1_delta_-31 269
depth_1_delta_28 264
depth_1_delta_21 232
depth_1_delta_36 227
depth_1_delta_22 224
depth_1_delta_-7 208
depth_1_delta_-22 203
depth_1_delta_30 197
depth_1_delta_29 191
depth_1_delta_-30 181
depth_1_delta_-39 169
depth_1_delta_-27 153
depth_1_delta_-19 150
depth_1_delta_-16 150
depth_1_delta_-53 136
depth_1_delta_-21 135
depth_1_delta_-41 134
depth_1_delta_-54 131
depth_1_delta_46 129
depth_1_delta_47 128
depth_1_delta_41 125
depth_1_delta_-34 122
depth_1_delta_38 120
depth_1_delta_-26 115
depth_1_delta_-45 110
depth_1_delta_40 97
depth_1_delta_-46 94
depth_1_delta_-35 75
depth_1_delta_-33 68
depth_1_delta_42 62
depth_1_delta_31 56
depth_1_delta_-52 54
depth_1_delta_35 53
depth_1_delta_-23 52
depth_1_delta_32 46
depth_1_delta_-38 32
depth_1_delta_49 28
depth_1_delta_-32 24
depth_1_delta_-58 19
depth_1_delta_55 14
depth_1_delta_58 10
depth_1_delta_-56 9
depth_1_delta_-44 8
depth_1_delta_-50 4
depth_1_delta_23 2
depth_1_delta_-48 1
depth_1_delta_33 1
depth_2_delta_1 167341
depth_2_delta_-1 63016
depth_2_delta_2 25857
depth_2_delta_-2 16594
depth_2_delta_-12 7100
depth_2_delta_-51 6380
depth_2_delta_50 6201
depth_2_delta_-3 2190
depth_2_delta_-36 908
depth_2_delta_-59 886
depth_2_delta_34 487
depth_2_delta_7 441
depth_2_delta_4 255
depth_2_delta_-5 176
depth_2_delta_5 170
depth_2_delta_-14 124
depth_2_delta_15 117
depth_2_delta_16 103
depth_2_delta_-10 102
depth_2_delta_3 83
depth_2_delta_-24 80
depth_2_delta_-25 80
depth_2_delta_-54 71
depth_2_delta_-53 68
depth_2_delta_38 57
depth_2_delta_6 54
depth_2_delta_14 51
depth_2_delta_9 42
depth_2_delta_-34 42
depth_2_delta_28 33
depth_2_delta_30 30
depth_2_delta_10 28
depth_2_delta_8 27
depth_2_delta_-8 27
depth_2_delta_-37 25
depth_2_delta_-28 24
depth_2_delta_13 24
depth_2_delta_-17 21
depth_2_delta_-31 19
depth_2_delta_51 14
depth_2_delta_-41 12
depth_2_delta_25 6
depth_2_delta_18 6
depth_2_delta_31 6
depth_2_delta_20 6
depth_2_delta_36 5
depth_2_delta_-18 5
depth_2_delta_-22 3
depth_2_delta_26 3
depth_2_delta_-11 2
depth_2_delta_-20 2
depth_2_delta_-4 2
depth_2_delta_-6 2
depth_2_delta_-29 1
depth_2_delta_21 1
depth_2_delta_17 1
depth_3_delta_1 103988
depth_3_delta_-1 25646
depth_3_delta_2 10427
depth_3_delta_-12 3803
depth_3_delta_-2 3621
depth_3_delta_50 2098
depth_3_delta_-51 2085
depth_3_delta_-3 506
depth_3_delta_7 237
depth_3_delta_-36 36
depth_3_delta_5 22
depth_3_delta_15 9
depth_3_delta_3 2
depth_3_delta_16 1
depth_3_delta_-5 1
depth_4_delta_1 60558
depth_4_delta_-1 6797
depth_4_delta_-12 1226
depth_4_delta_2 1123
depth_4_delta_50 273
depth_4_delta_-51 227
depth_4_delta_-2 158
depth_4_delta_-3 148
depth_4_delta_7 107
depth_4_delta_5 2
depth_5_delta_1 49348
depth_5_delta_-1 1299
depth_5_delta_7 50
depth_5_delta_2 20
depth_5_delta_50 12
depth_5_delta_-51 12
depth_5_delta_-12 7
depth_5_delta_-2 6
depth_5_delta_-3 1
depth_6_delta_1 37219
depth_6_delta_-1 143
depth_6_delta_-51 4
depth_6_delta_50 2
depth_7_delta_1 25873
depth_7_delta_-1 2
depth_8_delta_1 16578
depth_9_delta_1 9170
depth_10_delta_1 1726

spp.pref.total 2070581
spp.pref.at_L2 264661
spp.pref.at_LLC 1805920

spp.depth.max 9
spp.depth.min 0
spp.depth.avg 1

spp.breadth.max 2
spp.breadth.min 0
spp.breadth.avg 0

delta_-2 616948
delta_1 612083
delta_-1 412864
delta_-12 331265
delta_2 134711
delta_4 4384
delta_13 1368
delta_3 561
delta_25 491
delta_49 265
delta_37 264
delta_54 189
delta_16 152
delta_11 147
delta_7 126
delta_40 124
delta_36 64
delta_55 49
delta_-3 45
delta_35 41
delta_-37 36
delta_53 33
delta_-32 33
delta_-27 26
delta_-39 20
delta_-38 19
delta_-6 17
delta_8 16
delta_52 16
delta_12 14
delta_-14 14
delta_-36 12
delta_15 11
delta_-15 10
delta_-16 8
delta_48 7
delta_32 6
delta_51 5
delta_-17 3
delta_6 2
delta_27 2
delta_-22 2
delta_-19 2
delta_-23 2
delta_-18 2
delta_-42 1
delta_26 1
delta_-9 1
delta_17 1
delta_19 1
delta_47 1
delta_22 1
delta_23 1
delta_38 1
delta_5 1
delta_21 1

depth_1_delta_-12 201132
depth_1_delta_1 156388
depth_1_delta_-2 136640
depth_1_delta_-1 93055
depth_1_delta_2 44848
depth_1_delta_4 4255
depth_1_delta_13 1299
depth_1_delta_3 559
depth_1_delta_25 404
depth_1_delta_37 264
depth_1_delta_49 258
depth_1_delta_54 183
depth_1_delta_16 152
depth_1_delta_11 147
depth_1_delta_7 126
depth_1_delta_40 122
depth_1_delta_36 64
depth_1_delta_55 47
depth_1_delta_-3 45
depth_1_delta_35 41
depth_1_delta_-37 36
depth_1_delta_-32 33
depth_1_delta_53 31
depth_1_delta_-27 26
depth_1_delta_-39 20
depth_1_delta_-38 19
depth_1_delta_-6 17
depth_1_delta_8 16
depth_1_delta_52 16
depth_1_delta_12 14
depth_1_delta_-14 14
depth_1_delta_-36 12
depth_1_delta_15 11
depth_1_delta_-15 10
depth_1_delta_-16 8
depth_1_delta_48 7
depth_1_delta_32 6
depth_1_delta_51 5
depth_1_delta_-17 3
depth_1_delta_-18 2
depth_1_delta_-23 2
depth_1_delta_27 2
depth_1_delta_-22 2
depth_1_delta_-19 2
depth_1_delta_6 2
depth_1_delta_47 1
depth_1_delta_22 1
depth_1_delta_-42 1
depth_1_delta_19 1
depth_1_delta_17 1
depth_1_delta_-9 1
depth_1_delta_23 1
depth_1_delta_26 1
depth_1_delta_38 1
depth_1_delta_5 1
depth_1_delta_21 1
depth_2_delta_1 143327
depth_2_delta_-2 127598
depth_2_delta_-1 85731
depth_2_delta_-12 83850
depth_2_delta_2 40796
depth_2_delta_4 129
depth_2_delta_25 87
depth_2_delta_13 69
depth_2_delta_49 7
depth_2_delta_54 6
depth_2_delta_40 2
depth_2_delta_53 2
depth_2_delta_55 2
depth_2_delta_3 2
depth_3_delta_1 135169
depth_3_delta_-2 122934
depth_3_delta_-1 80608
depth_3_delta_2 37802
depth_3_delta_-12 36202
depth_4_delta_-2 109515
depth_4_delta_1 90169
depth_4_delta_-1 72026
depth_4_delta_2 10280
depth_4_delta_-12 10070
depth_5_delta_-2 81840
depth_5_delta_1 56082
depth_5_delta_-1 49446
depth_5_delta_2 951
depth_5_delta_-12 11
depth_6_delta_-2 34373
depth_6_delta_1 26035
depth_6_delta_-1 24216
depth_6_delta_2 32
depth_7_delta_-1 7570
depth_7_delta_1 4881
depth_7_delta_-2 3998
depth_7_delta_2 2
depth_8_delta_-1 211
depth_8_delta_-2 50
depth_8_delta_1 31
depth_9_delta_-1 1
depth_9_delta_1 1

spp.pref.total 614677
spp.pref.at_L2 77668
spp.pref.at_LLC 537009

spp.depth.max 7
spp.depth.min 0
spp.depth.avg 1

spp.breadth.max 2
spp.breadth.min 0
spp.breadth.avg 0

delta_-1 275202
delta_-2 155038
delta_-12 83973
delta_1 72894
delta_2 26265
delta_-3 6990
delta_12 503
delta_-20 456
delta_15 434
delta_-17 403
delta_51 350
delta_18 306
delta_-16 297
delta_-14 280
delta_-11 220
delta_-19 198
delta_13 145
delta_50 133
delta_-13 116
delta_54 101
delta_19 67
delta_53 37
delta_56 30
delta_52 22
delta_57 19
delta_-4 14
delta_10 10
delta_45 6
delta_6 5
delta_-7 2
delta_4 1
delta_47 1
delta_49 1

depth_1_delta_-1 77175
depth_1_delta_-2 68897
depth_1_delta_-12 53049
depth_1_delta_1 29868
depth_1_delta_2 11994
depth_1_delta_-3 3754
depth_1_delta_12 503
depth_1_delta_-20 456
depth_1_delta_15 434
depth_1_delta_-17 401
depth_1_delta_18 302
depth_1_delta_-16 294
depth_1_delta_-14 280
depth_1_delta_51 275
depth_1_delta_-11 220
depth_1_delta_-19 193
depth_1_delta_13 145
depth_1_delta_50 130
depth_1_delta_-13 116
depth_1_delta_54 101
depth_1_delta_19 66
depth_1_delta_53 36
depth_1_delta_56 30
depth_1_delta_52 22
depth_1_delta_57 19
depth_1_delta_-4 14
depth_1_delta_10 10
depth_1_delta_45 6
depth_1_delta_6 5
depth_1_delta_-7 2
depth_1_delta_4 1
depth_1_delta_47 1
depth_1_delta_49 1
depth_2_delta_-1 78924
depth_2_delta_-2 53998
depth_2_delta_1 25700
depth_2_delta_-12 20972
depth_2_delta_2 6944
depth_2_delta_-3 3210
depth_2_delta_51 65
depth_2_delta_-19 5
depth_2_delta_18 4
depth_2_delta_-16 3
depth_2_delta_50 3
depth_2_delta_-17 2
depth_2_delta_53 1
depth_2_delta_19 1
depth_3_delta_-1 66265
depth_3_delta_-2 25043
depth_3_delta_1 13110
depth_3_delta_-12 8270
depth_3_delta_2 6305
depth_3_delta_-3 26
depth_3_delta_51 10
depth_4_delta_-1 31825
depth_4_delta_-2 5258
depth_4_delta_1 3689
depth_4_delta_-12 1674
depth_4_delta_2 1014
depth_5_delta_-1 16981
depth_5_delta_-2 1642
depth_5_delta_1 527
depth_5_delta_2 8
depth_5_delta_-12 8
depth_6_delta_-1 3923
depth_6_delta_-2 200
depth_7_delta_-1 109

Channel_0_RQ_row_buffer_hit 41226
Channel_0_RQ_row_buffer_miss 724483
Channel_0_WQ_row_buffer_hit 21608
Channel_0_WQ_row_buffer_miss 385579
Channel_0_WQ_full 0
Channel_0_dbus_congested 111302

Channel_1_RQ_row_buffer_hit 41541
Channel_1_RQ_row_buffer_miss 723395
Channel_1_WQ_row_buffer_hit 21163
Channel_1_WQ_row_buffer_miss 386523
Channel_1_WQ_full 0
Channel_1_dbus_congested 112454

avg_congested_cycle 9

DRAM_bw_pochs 4791261
DRAM_bw_level_0 4781984
DRAM_bw_level_1 5380
DRAM_bw_level_2 3468
DRAM_bw_level_3 429
