*************************************************
   ChampSim Multicore Out-of-Order Simulator
   Last compiled: Mar 31 2025 20:14:32
*************************************************
parsing config file: /data3/config/spp_ppf_dev.ini

trace_0 /data3/CLOUD9/traces/cloud9_phase5_core0.trace.xz
trace_1 /data3/CLOUD9/traces/cloud9_phase5_core1.trace.xz
trace_2 /data3/CLOUD9/traces/cloud9_phase5_core2.trace.xz
trace_3 /data3/CLOUD9/traces/cloud9_phase5_core3.trace.xz
adding L2C_PREFETCHER: SPP_PPF_dev
Initialize SIGNATURE TABLE
ST_SET: 1
ST_WAY: 256
ST_TAG_BIT: 16
ST_TAG_MASK: ffff

Initialize PATTERN TABLE
PT_SET: 2048
PT_WAY: 4
SIG_DELTA_BIT: 7
C_SIG_BIT: 4
C_DELTA_BIT: 4

Initialize PREFETCH FILTER
FILTER_SET: 1024

Initialize PERCEPTRON
PERC_ENTRIES: 4096
PERC_FEATURES: 9
Initialize SIGNATURE TABLE
ST_SET: 1
ST_WAY: 256
ST_TAG_BIT: 16
ST_TAG_MASK: ffff

Initialize PATTERN TABLE
PT_SET: 2048
PT_WAY: 4
SIG_DELTA_BIT: 7
C_SIG_BIT: 4
C_DELTA_BIT: 4

Initialize PREFETCH FILTER
FILTER_SET: 1024

Initialize PERCEPTRON
PERC_ENTRIES: 4096
PERC_FEATURES: 9
PERC_THRESH_HI: -5
PERC_THRESH_LO: -15

adding L2C_PREFETCHER: SPP_PPF_dev
Initialize SIGNATURE TABLE
ST_SET: 1
ST_WAY: 256
ST_TAG_BIT: 16
ST_TAG_MASK: ffff

Initialize PATTERN TABLE
PT_SET: 2048
PT_WAY: 4
SIG_DELTA_BIT: 7
C_SIG_BIT: 4
C_DELTA_BIT: 4

Initialize PREFETCH FILTER
FILTER_SET: 1024

Initialize PERCEPTRON
PERC_ENTRIES: 4096
PERC_FEATURES: 9
Initialize SIGNATURE TABLE
ST_SET: 1
ST_WAY: 256
ST_TAG_BIT: 16
ST_TAG_MASK: ffff

Initialize PATTERN TABLE
PT_SET: 2048
PT_WAY: 4
SIG_DELTA_BIT: 7
C_SIG_BIT: 4
C_DELTA_BIT: 4

Initialize PREFETCH FILTER
FILTER_SET: 1024

Initialize PERCEPTRON
PERC_ENTRIES: 4096
PERC_FEATURES: 9
PERC_THRESH_HI: -5
PERC_THRESH_LO: -15

adding L2C_PREFETCHER: SPP_PPF_dev
Initialize SIGNATURE TABLE
ST_SET: 1
ST_WAY: 256
ST_TAG_BIT: 16
ST_TAG_MASK: ffff

Initialize PATTERN TABLE
PT_SET: 2048
PT_WAY: 4
SIG_DELTA_BIT: 7
C_SIG_BIT: 4
C_DELTA_BIT: 4

Initialize PREFETCH FILTER
FILTER_SET: 1024

Initialize PERCEPTRON
PERC_ENTRIES: 4096
PERC_FEATURES: 9
Initialize SIGNATURE TABLE
ST_SET: 1
ST_WAY: 256
ST_TAG_BIT: 16
ST_TAG_MASK: ffff

Initialize PATTERN TABLE
PT_SET: 2048
PT_WAY: 4
SIG_DELTA_BIT: 7
C_SIG_BIT: 4
C_DELTA_BIT: 4

Initialize PREFETCH FILTER
FILTER_SET: 1024

Initialize PERCEPTRON
PERC_ENTRIES: 4096
PERC_FEATURES: 9
PERC_THRESH_HI: -5
PERC_THRESH_LO: -15

adding L2C_PREFETCHER: SPP_PPF_dev
Initialize SIGNATURE TABLE
ST_SET: 1
ST_WAY: 256
ST_TAG_BIT: 16
ST_TAG_MASK: ffff

Initialize PATTERN TABLE
PT_SET: 2048
PT_WAY: 4
SIG_DELTA_BIT: 7
C_SIG_BIT: 4
C_DELTA_BIT: 4

Initialize PREFETCH FILTER
FILTER_SET: 1024

Initialize PERCEPTRON
PERC_ENTRIES: 4096
PERC_FEATURES: 9
Initialize SIGNATURE TABLE
ST_SET: 1
ST_WAY: 256
ST_TAG_BIT: 16
ST_TAG_MASK: ffff

Initialize PATTERN TABLE
PT_SET: 2048
PT_WAY: 4
SIG_DELTA_BIT: 7
C_SIG_BIT: 4
C_DELTA_BIT: 4

Initialize PREFETCH FILTER
FILTER_SET: 1024

Initialize PERCEPTRON
PERC_ENTRIES: 4096
PERC_FEATURES: 9
PERC_THRESH_HI: -5
PERC_THRESH_LO: -15

Initialize SHIP state
warmup_instructions 50000000
simulation_instructions 150000000
champsim_seed 7354
measure_ipc 0
measure_ipc_epoch 1000
measure_dram_bw 1
measure_dram_bw_epoch 256
measure_cache_acc 1
measure_cache_acc_epoch 1024
l1d_perfect 0
l2c_perfect 0
llc_perfect 0
l1d_semi_perfect 0
l2c_semi_perfect 0
llc_semi_perfect 0
semi_perfect_cache_page_buffer_size 64

num_cpus 4
cpu_freq 4000
dram_io_freq 2400
page_size 4096
block_size 64
max_read_per_cycle 8
max_fill_per_cycle 1
dram_channels 2
log2_dram_channels 1
dram_ranks 1
dram_banks 8
dram_rows 65536
dram_columns 128
dram_row_size 8
dram_size 8192
dram_pages 2097152

fetch_width 6
decode_width 6
exec_width 4
lq_width 2
sq_width 2
retire_width 4
scheduler_size 128
branch_mispredict_penalty 20
rob_size 256
lq_size 72
sq_size 56
num_instr_destinations_sparc 4
num_instr_destinations 2
num_instr_sources 4

itlb_set 16
itlb_way 8
itlb_rq_size 16
itlb_wq_size 16
itlb_pq_size 0
itlb_mshr_size 8
itlb_latency 1

dtlb_set 16
dtlb_way 4
dtlb_rq_size 16
dtlb_wq_size 16
dtlb_pq_size 0
dtlb_mshr_size 8
dtlb_latency 1

stlb_set 128
stlb_way 12
stlb_rq_size 32
stlb_wq_size 32
stlb_pq_size 0
stlb_mshr_size 16
stlb_latency 8

l1i_size 32
l1i_set 64
l1i_way 8
l1i_rq_size 64
l1i_wq_size 64
l1i_pq_size 8
l1i_mshr_size 8
l1i_latency 1

l1d_size 32
l1d_set 64
l1d_way 8
l1d_rq_size 64
l1d_wq_size 64
l1d_pq_size 8
l1d_mshr_size 16
l1d_latency 4

l2c_size 256
l2c_set 512
l2c_way 8
l2c_rq_size 32
l2c_wq_size 32
l2c_pq_size 32
l2c_mshr_size 32
l2c_latency 10

llc_size 8192
llc_set 8192
llc_way 16
llc_rq_size 128
llc_wq_size 128
llc_pq_size 128
llc_mshr_size 256
llc_latency 20

dram_channel_width 8
dram_wq_size 64
dram_rq_size 64
tRP 15
tRCD 15
tCAS 12.5
dram_dbus_turn_around_time 30
dram_write_high_wm 56
dram_write_low_wm 48
min_dram_writes_per_switch 16
dram_mtps 2400
dram_dbus_return_time 13


Heartbeat CPU  1 instructions:    1000003 cycles:     401037 heartbeat IPC: 2.49354 cumulative IPC: 2.49354 (Simulation time: 0 hr 0 min 5 sec) 
Heartbeat CPU  3 instructions:    1000001 cycles:     414187 heartbeat IPC: 2.41437 cumulative IPC: 2.41437 (Simulation time: 0 hr 0 min 5 sec) 
Heartbeat CPU  2 instructions:    1000002 cycles:     428089 heartbeat IPC: 2.33597 cumulative IPC: 2.33597 (Simulation time: 0 hr 0 min 5 sec) 
Heartbeat CPU  0 instructions:    1000001 cycles:     428523 heartbeat IPC: 2.33360 cumulative IPC: 2.33360 (Simulation time: 0 hr 0 min 5 sec) 
Heartbeat CPU  1 instructions:    2000001 cycles:     796488 heartbeat IPC: 2.52875 cumulative IPC: 2.51102 (Simulation time: 0 hr 0 min 10 sec) 
Heartbeat CPU  2 instructions:    2000002 cycles:     815669 heartbeat IPC: 2.58011 cumulative IPC: 2.45198 (Simulation time: 0 hr 0 min 11 sec) 
Heartbeat CPU  0 instructions:    2000002 cycles:     833498 heartbeat IPC: 2.46929 cumulative IPC: 2.39953 (Simulation time: 0 hr 0 min 11 sec) 
Heartbeat CPU  3 instructions:    2000002 cycles:     859433 heartbeat IPC: 2.24595 cumulative IPC: 2.32712 (Simulation time: 0 hr 0 min 11 sec) 
Heartbeat CPU  1 instructions:    3000001 cycles:    1191985 heartbeat IPC: 2.52846 cumulative IPC: 2.51681 (Simulation time: 0 hr 0 min 16 sec) 
Heartbeat CPU  2 instructions:    3000000 cycles:    1202293 heartbeat IPC: 2.58649 cumulative IPC: 2.49523 (Simulation time: 0 hr 0 min 16 sec) 
Heartbeat CPU  0 instructions:    3000000 cycles:    1226812 heartbeat IPC: 2.54249 cumulative IPC: 2.44536 (Simulation time: 0 hr 0 min 16 sec) 
Heartbeat CPU  3 instructions:    3000001 cycles:    1315511 heartbeat IPC: 2.19261 cumulative IPC: 2.28048 (Simulation time: 0 hr 0 min 17 sec) 
Heartbeat CPU  1 instructions:    4000000 cycles:    1588618 heartbeat IPC: 2.52122 cumulative IPC: 2.51791 (Simulation time: 0 hr 0 min 21 sec) 
Heartbeat CPU  2 instructions:    4000000 cycles:    1589215 heartbeat IPC: 2.58450 cumulative IPC: 2.51697 (Simulation time: 0 hr 0 min 21 sec) 
Heartbeat CPU  0 instructions:    4000000 cycles:    1624747 heartbeat IPC: 2.51297 cumulative IPC: 2.46192 (Simulation time: 0 hr 0 min 22 sec) 
Heartbeat CPU  3 instructions:    4000000 cycles:    1735667 heartbeat IPC: 2.38007 cumulative IPC: 2.30459 (Simulation time: 0 hr 0 min 23 sec) 
Heartbeat CPU  2 instructions:    5000001 cycles:    1976371 heartbeat IPC: 2.58294 cumulative IPC: 2.52989 (Simulation time: 0 hr 0 min 26 sec) 
Heartbeat CPU  1 instructions:    5000000 cycles:    1985999 heartbeat IPC: 2.51648 cumulative IPC: 2.51762 (Simulation time: 0 hr 0 min 26 sec) 
Heartbeat CPU  0 instructions:    5000001 cycles:    2013481 heartbeat IPC: 2.57246 cumulative IPC: 2.48326 (Simulation time: 0 hr 0 min 27 sec) 
Heartbeat CPU  3 instructions:    5000003 cycles:    2154925 heartbeat IPC: 2.38517 cumulative IPC: 2.32027 (Simulation time: 0 hr 0 min 29 sec) 
Heartbeat CPU  2 instructions:    6000002 cycles:    2358752 heartbeat IPC: 2.61520 cumulative IPC: 2.54372 (Simulation time: 0 hr 0 min 32 sec) 
Heartbeat CPU  1 instructions:    6000002 cycles:    2383003 heartbeat IPC: 2.51887 cumulative IPC: 2.51783 (Simulation time: 0 hr 0 min 32 sec) 
Heartbeat CPU  0 instructions:    6000003 cycles:    2398749 heartbeat IPC: 2.59560 cumulative IPC: 2.50131 (Simulation time: 0 hr 0 min 32 sec) 
Heartbeat CPU  3 instructions:    6000001 cycles:    2591088 heartbeat IPC: 2.29272 cumulative IPC: 2.31563 (Simulation time: 0 hr 0 min 35 sec) 
Heartbeat CPU  2 instructions:    7000003 cycles:    2753175 heartbeat IPC: 2.53535 cumulative IPC: 2.54252 (Simulation time: 0 hr 0 min 37 sec) 
Heartbeat CPU  1 instructions:    7000002 cycles:    2789712 heartbeat IPC: 2.45876 cumulative IPC: 2.50922 (Simulation time: 0 hr 0 min 37 sec) 
Heartbeat CPU  0 instructions:    7000003 cycles:    2807551 heartbeat IPC: 2.44617 cumulative IPC: 2.49328 (Simulation time: 0 hr 0 min 38 sec) 
Heartbeat CPU  3 instructions:    7000003 cycles:    2993199 heartbeat IPC: 2.48688 cumulative IPC: 2.33864 (Simulation time: 0 hr 0 min 40 sec) 
Heartbeat CPU  2 instructions:    8000000 cycles:    3141768 heartbeat IPC: 2.57338 cumulative IPC: 2.54634 (Simulation time: 0 hr 0 min 42 sec) 
Heartbeat CPU  1 instructions:    8000000 cycles:    3187244 heartbeat IPC: 2.51552 cumulative IPC: 2.51001 (Simulation time: 0 hr 0 min 43 sec) 
Heartbeat CPU  0 instructions:    8000000 cycles:    3197121 heartbeat IPC: 2.56693 cumulative IPC: 2.50225 (Simulation time: 0 hr 0 min 43 sec) 
Heartbeat CPU  3 instructions:    8000000 cycles:    3385391 heartbeat IPC: 2.54976 cumulative IPC: 2.36309 (Simulation time: 0 hr 0 min 46 sec) 
Heartbeat CPU  2 instructions:    9000000 cycles:    3529427 heartbeat IPC: 2.57959 cumulative IPC: 2.54999 (Simulation time: 0 hr 0 min 48 sec) 
Heartbeat CPU  0 instructions:    9000001 cycles:    3578231 heartbeat IPC: 2.62392 cumulative IPC: 2.51521 (Simulation time: 0 hr 0 min 48 sec) 
Heartbeat CPU  1 instructions:    9000001 cycles:    3584552 heartbeat IPC: 2.51694 cumulative IPC: 2.51077 (Simulation time: 0 hr 0 min 48 sec) 
Heartbeat CPU  3 instructions:    9000000 cycles:    3780855 heartbeat IPC: 2.52868 cumulative IPC: 2.38041 (Simulation time: 0 hr 0 min 51 sec) 
Heartbeat CPU  2 instructions:   10000001 cycles:    3913097 heartbeat IPC: 2.60641 cumulative IPC: 2.55552 (Simulation time: 0 hr 0 min 53 sec) 
Heartbeat CPU  0 instructions:   10000003 cycles:    3971795 heartbeat IPC: 2.54089 cumulative IPC: 2.51775 (Simulation time: 0 hr 0 min 54 sec) 
Heartbeat CPU  1 instructions:   10000000 cycles:    3983258 heartbeat IPC: 2.50811 cumulative IPC: 2.51051 (Simulation time: 0 hr 0 min 54 sec) 
Heartbeat CPU  3 instructions:   10000003 cycles:    4174879 heartbeat IPC: 2.53792 cumulative IPC: 2.39528 (Simulation time: 0 hr 0 min 57 sec) 
Heartbeat CPU  2 instructions:   11000002 cycles:    4300321 heartbeat IPC: 2.58249 cumulative IPC: 2.55795 (Simulation time: 0 hr 0 min 58 sec) 
Heartbeat CPU  0 instructions:   11000001 cycles:    4360719 heartbeat IPC: 2.57119 cumulative IPC: 2.52252 (Simulation time: 0 hr 0 min 59 sec) 
Heartbeat CPU  1 instructions:   11000003 cycles:    4381034 heartbeat IPC: 2.51399 cumulative IPC: 2.51082 (Simulation time: 0 hr 0 min 59 sec) 
Heartbeat CPU  3 instructions:   11000003 cycles:    4571746 heartbeat IPC: 2.51974 cumulative IPC: 2.40608 (Simulation time: 0 hr 1 min 2 sec) 
Heartbeat CPU  2 instructions:   12000000 cycles:    4686444 heartbeat IPC: 2.58984 cumulative IPC: 2.56058 (Simulation time: 0 hr 1 min 4 sec) 
Heartbeat CPU  0 instructions:   12000000 cycles:    4749911 heartbeat IPC: 2.56942 cumulative IPC: 2.52636 (Simulation time: 0 hr 1 min 5 sec) 
Heartbeat CPU  1 instructions:   12000000 cycles:    4776004 heartbeat IPC: 2.53183 cumulative IPC: 2.51256 (Simulation time: 0 hr 1 min 5 sec) 
Heartbeat CPU  3 instructions:   12000000 cycles:    4966076 heartbeat IPC: 2.53594 cumulative IPC: 2.41639 (Simulation time: 0 hr 1 min 8 sec) 
Heartbeat CPU  2 instructions:   13000001 cycles:    5074477 heartbeat IPC: 2.57710 cumulative IPC: 2.56184 (Simulation time: 0 hr 1 min 9 sec) 
Heartbeat CPU  0 instructions:   13000003 cycles:    5140349 heartbeat IPC: 2.56123 cumulative IPC: 2.52901 (Simulation time: 0 hr 1 min 10 sec) 
Heartbeat CPU  1 instructions:   13000000 cycles:    5168503 heartbeat IPC: 2.54778 cumulative IPC: 2.51524 (Simulation time: 0 hr 1 min 11 sec) 
Heartbeat CPU  3 instructions:   13000000 cycles:    5361592 heartbeat IPC: 2.52834 cumulative IPC: 2.42465 (Simulation time: 0 hr 1 min 13 sec) 
Heartbeat CPU  2 instructions:   14000002 cycles:    5459480 heartbeat IPC: 2.59738 cumulative IPC: 2.56435 (Simulation time: 0 hr 1 min 15 sec) 
Heartbeat CPU  0 instructions:   14000001 cycles:    5522379 heartbeat IPC: 2.61759 cumulative IPC: 2.53514 (Simulation time: 0 hr 1 min 16 sec) 
Heartbeat CPU  1 instructions:   14000000 cycles:    5555134 heartbeat IPC: 2.58645 cumulative IPC: 2.52019 (Simulation time: 0 hr 1 min 16 sec) 
Heartbeat CPU  3 instructions:   14000000 cycles:    5757152 heartbeat IPC: 2.52806 cumulative IPC: 2.43176 (Simulation time: 0 hr 1 min 19 sec) 
Heartbeat CPU  2 instructions:   15000002 cycles:    5842463 heartbeat IPC: 2.61108 cumulative IPC: 2.56741 (Simulation time: 0 hr 1 min 21 sec) 
Heartbeat CPU  0 instructions:   15000002 cycles:    5910649 heartbeat IPC: 2.57553 cumulative IPC: 2.53779 (Simulation time: 0 hr 1 min 22 sec) 
Heartbeat CPU  1 instructions:   15000001 cycles:    5943570 heartbeat IPC: 2.57443 cumulative IPC: 2.52374 (Simulation time: 0 hr 1 min 22 sec) 
Heartbeat CPU  3 instructions:   15000000 cycles:    6151061 heartbeat IPC: 2.53866 cumulative IPC: 2.43860 (Simulation time: 0 hr 1 min 25 sec) 
Heartbeat CPU  2 instructions:   16000000 cycles:    6231562 heartbeat IPC: 2.57003 cumulative IPC: 2.56757 (Simulation time: 0 hr 1 min 26 sec) 
Heartbeat CPU  0 instructions:   16000000 cycles:    6302709 heartbeat IPC: 2.55062 cumulative IPC: 2.53859 (Simulation time: 0 hr 1 min 27 sec) 
Heartbeat CPU  1 instructions:   16000000 cycles:    6331197 heartbeat IPC: 2.57980 cumulative IPC: 2.52717 (Simulation time: 0 hr 1 min 28 sec) 
Heartbeat CPU  3 instructions:   16000000 cycles:    6545637 heartbeat IPC: 2.53437 cumulative IPC: 2.44438 (Simulation time: 0 hr 1 min 31 sec) 
Heartbeat CPU  2 instructions:   17000003 cycles:    6618868 heartbeat IPC: 2.58195 cumulative IPC: 2.56842 (Simulation time: 0 hr 1 min 32 sec) 
Heartbeat CPU  0 instructions:   17000003 cycles:    6690486 heartbeat IPC: 2.57881 cumulative IPC: 2.54092 (Simulation time: 0 hr 1 min 33 sec) 
Heartbeat CPU  1 instructions:   17000002 cycles:    6718235 heartbeat IPC: 2.58373 cumulative IPC: 2.53043 (Simulation time: 0 hr 1 min 33 sec) 
Heartbeat CPU  3 instructions:   17000002 cycles:    6940478 heartbeat IPC: 2.53267 cumulative IPC: 2.44940 (Simulation time: 0 hr 1 min 37 sec) 
Heartbeat CPU  2 instructions:   18000001 cycles:    7006195 heartbeat IPC: 2.58179 cumulative IPC: 2.56915 (Simulation time: 0 hr 1 min 37 sec) 
Heartbeat CPU  0 instructions:   18000000 cycles:    7070727 heartbeat IPC: 2.62990 cumulative IPC: 2.54571 (Simulation time: 0 hr 1 min 38 sec) 
Heartbeat CPU  1 instructions:   18000000 cycles:    7103519 heartbeat IPC: 2.59548 cumulative IPC: 2.53396 (Simulation time: 0 hr 1 min 39 sec) 
Heartbeat CPU  3 instructions:   18000001 cycles:    7336674 heartbeat IPC: 2.52400 cumulative IPC: 2.45343 (Simulation time: 0 hr 1 min 42 sec) 
Heartbeat CPU  2 instructions:   19000003 cycles:    7391107 heartbeat IPC: 2.59800 cumulative IPC: 2.57066 (Simulation time: 0 hr 1 min 43 sec) 
Heartbeat CPU  0 instructions:   19000000 cycles:    7475512 heartbeat IPC: 2.47045 cumulative IPC: 2.54163 (Simulation time: 0 hr 1 min 44 sec) 
Heartbeat CPU  1 instructions:   19000002 cycles:    7490315 heartbeat IPC: 2.58535 cumulative IPC: 2.53661 (Simulation time: 0 hr 1 min 45 sec) 
Heartbeat CPU  3 instructions:   19000000 cycles:    7731410 heartbeat IPC: 2.53334 cumulative IPC: 2.45751 (Simulation time: 0 hr 1 min 48 sec) 
Heartbeat CPU  2 instructions:   20000000 cycles:    7774143 heartbeat IPC: 2.61071 cumulative IPC: 2.57263 (Simulation time: 0 hr 1 min 49 sec) 
Heartbeat CPU  0 instructions:   20000000 cycles:    7872408 heartbeat IPC: 2.51955 cumulative IPC: 2.54052 (Simulation time: 0 hr 1 min 50 sec) 
Heartbeat CPU  1 instructions:   20000000 cycles:    7879728 heartbeat IPC: 2.56796 cumulative IPC: 2.53816 (Simulation time: 0 hr 1 min 50 sec) 
Heartbeat CPU  3 instructions:   20000000 cycles:    8126467 heartbeat IPC: 2.53128 cumulative IPC: 2.46109 (Simulation time: 0 hr 1 min 54 sec) 
Heartbeat CPU  2 instructions:   21000000 cycles:    8158102 heartbeat IPC: 2.60444 cumulative IPC: 2.57413 (Simulation time: 0 hr 1 min 54 sec) 
Heartbeat CPU  0 instructions:   21000001 cycles:    8259984 heartbeat IPC: 2.58014 cumulative IPC: 2.54238 (Simulation time: 0 hr 1 min 56 sec) 
Heartbeat CPU  1 instructions:   21000002 cycles:    8265762 heartbeat IPC: 2.59045 cumulative IPC: 2.54060 (Simulation time: 0 hr 1 min 56 sec) 
Heartbeat CPU  3 instructions:   21000003 cycles:    8519488 heartbeat IPC: 2.54440 cumulative IPC: 2.46494 (Simulation time: 0 hr 1 min 59 sec) 
Heartbeat CPU  2 instructions:   22000001 cycles:    8540852 heartbeat IPC: 2.61267 cumulative IPC: 2.57586 (Simulation time: 0 hr 2 min 0 sec) 
Heartbeat CPU  1 instructions:   22000002 cycles:    8652037 heartbeat IPC: 2.58883 cumulative IPC: 2.54275 (Simulation time: 0 hr 2 min 1 sec) 
Heartbeat CPU  0 instructions:   22000003 cycles:    8663116 heartbeat IPC: 2.48058 cumulative IPC: 2.53950 (Simulation time: 0 hr 2 min 2 sec) 
Heartbeat CPU  3 instructions:   22000001 cycles:    8916011 heartbeat IPC: 2.52192 cumulative IPC: 2.46747 (Simulation time: 0 hr 2 min 5 sec) 
Heartbeat CPU  2 instructions:   23000003 cycles:    8952840 heartbeat IPC: 2.42726 cumulative IPC: 2.56902 (Simulation time: 0 hr 2 min 6 sec) 
Heartbeat CPU  1 instructions:   23000000 cycles:    9039792 heartbeat IPC: 2.57894 cumulative IPC: 2.54431 (Simulation time: 0 hr 2 min 7 sec) 
Heartbeat CPU  0 instructions:   23000000 cycles:    9075952 heartbeat IPC: 2.42226 cumulative IPC: 2.53417 (Simulation time: 0 hr 2 min 8 sec) 
Heartbeat CPU  3 instructions:   23000000 cycles:    9309294 heartbeat IPC: 2.54270 cumulative IPC: 2.47065 (Simulation time: 0 hr 2 min 11 sec) 
Heartbeat CPU  2 instructions:   24000000 cycles:    9362909 heartbeat IPC: 2.43861 cumulative IPC: 2.56331 (Simulation time: 0 hr 2 min 12 sec) 
Heartbeat CPU  1 instructions:   24000000 cycles:    9428690 heartbeat IPC: 2.57137 cumulative IPC: 2.54542 (Simulation time: 0 hr 2 min 13 sec) 
Heartbeat CPU  0 instructions:   24000000 cycles:    9506895 heartbeat IPC: 2.32049 cumulative IPC: 2.52448 (Simulation time: 0 hr 2 min 14 sec) 
Heartbeat CPU  3 instructions:   24000000 cycles:    9704515 heartbeat IPC: 2.53023 cumulative IPC: 2.47308 (Simulation time: 0 hr 2 min 17 sec) 
Heartbeat CPU  2 instructions:   25000000 cycles:    9771214 heartbeat IPC: 2.44915 cumulative IPC: 2.55854 (Simulation time: 0 hr 2 min 18 sec) 
Heartbeat CPU  1 instructions:   25000003 cycles:    9814069 heartbeat IPC: 2.59486 cumulative IPC: 2.54736 (Simulation time: 0 hr 2 min 19 sec) 
Heartbeat CPU  0 instructions:   25000001 cycles:    9957391 heartbeat IPC: 2.21978 cumulative IPC: 2.51070 (Simulation time: 0 hr 2 min 21 sec) 
Heartbeat CPU  3 instructions:   25000001 cycles:   10099632 heartbeat IPC: 2.53090 cumulative IPC: 2.47534 (Simulation time: 0 hr 2 min 23 sec) 
Heartbeat CPU  2 instructions:   26000001 cycles:   10184907 heartbeat IPC: 2.41725 cumulative IPC: 2.55280 (Simulation time: 0 hr 2 min 25 sec) 
Heartbeat CPU  1 instructions:   26000003 cycles:   10198249 heartbeat IPC: 2.60295 cumulative IPC: 2.54946 (Simulation time: 0 hr 2 min 25 sec) 
Heartbeat CPU  0 instructions:   26000002 cycles:   10378384 heartbeat IPC: 2.37534 cumulative IPC: 2.50521 (Simulation time: 0 hr 2 min 27 sec) 
Heartbeat CPU  3 instructions:   26000003 cycles:   10492573 heartbeat IPC: 2.54492 cumulative IPC: 2.47794 (Simulation time: 0 hr 2 min 28 sec) 
Heartbeat CPU  1 instructions:   27000002 cycles:   10592478 heartbeat IPC: 2.53659 cumulative IPC: 2.54898 (Simulation time: 0 hr 2 min 29 sec) 
Heartbeat CPU  2 instructions:   27000002 cycles:   10859883 heartbeat IPC: 1.48154 cumulative IPC: 2.48621 (Simulation time: 0 hr 2 min 33 sec) 
Heartbeat CPU  3 instructions:   27000003 cycles:   10887655 heartbeat IPC: 2.53112 cumulative IPC: 2.47987 (Simulation time: 0 hr 2 min 33 sec) 
Heartbeat CPU  0 instructions:   27000002 cycles:   10898983 heartbeat IPC: 1.92086 cumulative IPC: 2.47730 (Simulation time: 0 hr 2 min 33 sec) 
Heartbeat CPU  1 instructions:   28000000 cycles:   10979709 heartbeat IPC: 2.58243 cumulative IPC: 2.55016 (Simulation time: 0 hr 2 min 35 sec) 
Heartbeat CPU  2 instructions:   28000000 cycles:   11248176 heartbeat IPC: 2.57537 cumulative IPC: 2.48929 (Simulation time: 0 hr 2 min 39 sec) 
Heartbeat CPU  3 instructions:   28000000 cycles:   11283048 heartbeat IPC: 2.52912 cumulative IPC: 2.48160 (Simulation time: 0 hr 2 min 39 sec) 
Heartbeat CPU  0 instructions:   28000000 cycles:   11295347 heartbeat IPC: 2.52293 cumulative IPC: 2.47890 (Simulation time: 0 hr 2 min 39 sec) 
Heartbeat CPU  1 instructions:   29000003 cycles:   11364067 heartbeat IPC: 2.60175 cumulative IPC: 2.55190 (Simulation time: 0 hr 2 min 40 sec) 
Heartbeat CPU  2 instructions:   29000003 cycles:   11629263 heartbeat IPC: 2.62408 cumulative IPC: 2.49371 (Simulation time: 0 hr 2 min 44 sec) 
Heartbeat CPU  3 instructions:   29000002 cycles:   11676047 heartbeat IPC: 2.54454 cumulative IPC: 2.48372 (Simulation time: 0 hr 2 min 45 sec) 
Heartbeat CPU  0 instructions:   29000003 cycles:   11683262 heartbeat IPC: 2.57789 cumulative IPC: 2.48218 (Simulation time: 0 hr 2 min 45 sec) 
Heartbeat CPU  1 instructions:   30000000 cycles:   11750162 heartbeat IPC: 2.59003 cumulative IPC: 2.55316 (Simulation time: 0 hr 2 min 46 sec) 
Heartbeat CPU  2 instructions:   30000001 cycles:   12014353 heartbeat IPC: 2.59679 cumulative IPC: 2.49701 (Simulation time: 0 hr 2 min 50 sec) 
Heartbeat CPU  3 instructions:   30000001 cycles:   12069675 heartbeat IPC: 2.54047 cumulative IPC: 2.48557 (Simulation time: 0 hr 2 min 51 sec) 
Heartbeat CPU  0 instructions:   30000000 cycles:   12075113 heartbeat IPC: 2.55198 cumulative IPC: 2.48445 (Simulation time: 0 hr 2 min 51 sec) 
Heartbeat CPU  1 instructions:   31000002 cycles:   12138604 heartbeat IPC: 2.57439 cumulative IPC: 2.55384 (Simulation time: 0 hr 2 min 52 sec) 
Heartbeat CPU  2 instructions:   31000000 cycles:   12395963 heartbeat IPC: 2.62047 cumulative IPC: 2.50081 (Simulation time: 0 hr 2 min 56 sec) 
Heartbeat CPU  0 instructions:   31000003 cycles:   12460039 heartbeat IPC: 2.59791 cumulative IPC: 2.48795 (Simulation time: 0 hr 2 min 57 sec) 
Heartbeat CPU  3 instructions:   31000001 cycles:   12465003 heartbeat IPC: 2.52955 cumulative IPC: 2.48696 (Simulation time: 0 hr 2 min 57 sec) 
Heartbeat CPU  1 instructions:   32000000 cycles:   12527384 heartbeat IPC: 2.57214 cumulative IPC: 2.55440 (Simulation time: 0 hr 2 min 58 sec) 
Heartbeat CPU  2 instructions:   32000000 cycles:   12778741 heartbeat IPC: 2.61248 cumulative IPC: 2.50416 (Simulation time: 0 hr 3 min 1 sec) 
Heartbeat CPU  0 instructions:   32000000 cycles:   12851684 heartbeat IPC: 2.55333 cumulative IPC: 2.48995 (Simulation time: 0 hr 3 min 2 sec) 
Heartbeat CPU  3 instructions:   32000000 cycles:   12858863 heartbeat IPC: 2.53897 cumulative IPC: 2.48856 (Simulation time: 0 hr 3 min 2 sec) 
Heartbeat CPU  1 instructions:   33000002 cycles:   12916298 heartbeat IPC: 2.57127 cumulative IPC: 2.55491 (Simulation time: 0 hr 3 min 3 sec) 
Heartbeat CPU  2 instructions:   33000003 cycles:   13162616 heartbeat IPC: 2.60502 cumulative IPC: 2.50710 (Simulation time: 0 hr 3 min 7 sec) 
Heartbeat CPU  0 instructions:   33000001 cycles:   13237359 heartbeat IPC: 2.59286 cumulative IPC: 2.49294 (Simulation time: 0 hr 3 min 8 sec) 
Heartbeat CPU  3 instructions:   33000000 cycles:   13253059 heartbeat IPC: 2.53681 cumulative IPC: 2.48999 (Simulation time: 0 hr 3 min 8 sec) 
Heartbeat CPU  1 instructions:   34000001 cycles:   13303405 heartbeat IPC: 2.58326 cumulative IPC: 2.55574 (Simulation time: 0 hr 3 min 9 sec) 
Heartbeat CPU  2 instructions:   34000003 cycles:   13545211 heartbeat IPC: 2.61373 cumulative IPC: 2.51011 (Simulation time: 0 hr 3 min 13 sec) 
Heartbeat CPU  0 instructions:   34000002 cycles:   13642829 heartbeat IPC: 2.46628 cumulative IPC: 2.49215 (Simulation time: 0 hr 3 min 14 sec) 
Heartbeat CPU  3 instructions:   34000003 cycles:   13646101 heartbeat IPC: 2.54427 cumulative IPC: 2.49155 (Simulation time: 0 hr 3 min 14 sec) 
Heartbeat CPU  1 instructions:   35000002 cycles:   13692647 heartbeat IPC: 2.56910 cumulative IPC: 2.55612 (Simulation time: 0 hr 3 min 15 sec) 
Heartbeat CPU  2 instructions:   35000002 cycles:   13930626 heartbeat IPC: 2.59460 cumulative IPC: 2.51245 (Simulation time: 0 hr 3 min 18 sec) 
Heartbeat CPU  0 instructions:   35000000 cycles:   14034875 heartbeat IPC: 2.55072 cumulative IPC: 2.49379 (Simulation time: 0 hr 3 min 20 sec) 
Heartbeat CPU  3 instructions:   35000003 cycles:   14035778 heartbeat IPC: 2.56623 cumulative IPC: 2.49363 (Simulation time: 0 hr 3 min 20 sec) 
Heartbeat CPU  1 instructions:   36000000 cycles:   14080478 heartbeat IPC: 2.57844 cumulative IPC: 2.55673 (Simulation time: 0 hr 3 min 20 sec) 
Heartbeat CPU  2 instructions:   36000000 cycles:   14315050 heartbeat IPC: 2.60129 cumulative IPC: 2.51484 (Simulation time: 0 hr 3 min 24 sec) 
Heartbeat CPU  0 instructions:   36000000 cycles:   14418530 heartbeat IPC: 2.60651 cumulative IPC: 2.49679 (Simulation time: 0 hr 3 min 26 sec) 
Heartbeat CPU  3 instructions:   36000000 cycles:   14429418 heartbeat IPC: 2.54038 cumulative IPC: 2.49490 (Simulation time: 0 hr 3 min 26 sec) 
Heartbeat CPU  1 instructions:   37000000 cycles:   14466660 heartbeat IPC: 2.58945 cumulative IPC: 2.55760 (Simulation time: 0 hr 3 min 26 sec) 
Heartbeat CPU  2 instructions:   37000001 cycles:   14698883 heartbeat IPC: 2.60530 cumulative IPC: 2.51720 (Simulation time: 0 hr 3 min 30 sec) 
Heartbeat CPU  0 instructions:   37000001 cycles:   14801783 heartbeat IPC: 2.60925 cumulative IPC: 2.49970 (Simulation time: 0 hr 3 min 31 sec) 
Heartbeat CPU  3 instructions:   37000001 cycles:   14824591 heartbeat IPC: 2.53054 cumulative IPC: 2.49585 (Simulation time: 0 hr 3 min 31 sec) 
Heartbeat CPU  1 instructions:   38000001 cycles:   14881418 heartbeat IPC: 2.41105 cumulative IPC: 2.55352 (Simulation time: 0 hr 3 min 32 sec) 
Heartbeat CPU  2 instructions:   38000001 cycles:   15085711 heartbeat IPC: 2.58513 cumulative IPC: 2.51894 (Simulation time: 0 hr 3 min 35 sec) 
Heartbeat CPU  0 instructions:   38000001 cycles:   15189210 heartbeat IPC: 2.58113 cumulative IPC: 2.50178 (Simulation time: 0 hr 3 min 37 sec) 
Heartbeat CPU  3 instructions:   38000000 cycles:   15219877 heartbeat IPC: 2.52981 cumulative IPC: 2.49674 (Simulation time: 0 hr 3 min 37 sec) 
Heartbeat CPU  1 instructions:   39000000 cycles:   15312826 heartbeat IPC: 2.31799 cumulative IPC: 2.54688 (Simulation time: 0 hr 3 min 38 sec) 
Heartbeat CPU  2 instructions:   39000000 cycles:   15467959 heartbeat IPC: 2.61610 cumulative IPC: 2.52134 (Simulation time: 0 hr 3 min 41 sec) 
Heartbeat CPU  0 instructions:   39000002 cycles:   15575377 heartbeat IPC: 2.58956 cumulative IPC: 2.50395 (Simulation time: 0 hr 3 min 42 sec) 
Heartbeat CPU  3 instructions:   39000002 cycles:   15615580 heartbeat IPC: 2.52715 cumulative IPC: 2.49751 (Simulation time: 0 hr 3 min 43 sec) 
Heartbeat CPU  1 instructions:   40000000 cycles:   15713202 heartbeat IPC: 2.49765 cumulative IPC: 2.54563 (Simulation time: 0 hr 3 min 44 sec) 
Heartbeat CPU  2 instructions:   40000000 cycles:   15852268 heartbeat IPC: 2.60207 cumulative IPC: 2.52330 (Simulation time: 0 hr 3 min 46 sec) 
Heartbeat CPU  0 instructions:   40000000 cycles:   15954923 heartbeat IPC: 2.63472 cumulative IPC: 2.50706 (Simulation time: 0 hr 3 min 48 sec) 
Heartbeat CPU  3 instructions:   40000000 cycles:   16012905 heartbeat IPC: 2.51683 cumulative IPC: 2.49799 (Simulation time: 0 hr 3 min 49 sec) 
Heartbeat CPU  1 instructions:   41000002 cycles:   16093479 heartbeat IPC: 2.62967 cumulative IPC: 2.54762 (Simulation time: 0 hr 3 min 50 sec) 
Heartbeat CPU  2 instructions:   41000002 cycles:   16235508 heartbeat IPC: 2.60934 cumulative IPC: 2.52533 (Simulation time: 0 hr 3 min 52 sec) 
Heartbeat CPU  0 instructions:   41000003 cycles:   16338813 heartbeat IPC: 2.60492 cumulative IPC: 2.50936 (Simulation time: 0 hr 3 min 53 sec) 
Heartbeat CPU  3 instructions:   41000001 cycles:   16405560 heartbeat IPC: 2.54677 cumulative IPC: 2.49915 (Simulation time: 0 hr 3 min 54 sec) 
Heartbeat CPU  1 instructions:   42000001 cycles:   16485648 heartbeat IPC: 2.54992 cumulative IPC: 2.54767 (Simulation time: 0 hr 3 min 56 sec) 
Heartbeat CPU  2 instructions:   42000001 cycles:   16620895 heartbeat IPC: 2.59479 cumulative IPC: 2.52694 (Simulation time: 0 hr 3 min 58 sec) 
Heartbeat CPU  0 instructions:   42000002 cycles:   16783287 heartbeat IPC: 2.24985 cumulative IPC: 2.50249 (Simulation time: 0 hr 4 min 0 sec) 
Heartbeat CPU  3 instructions:   42000001 cycles:   16798458 heartbeat IPC: 2.54519 cumulative IPC: 2.50023 (Simulation time: 0 hr 4 min 0 sec) 
Heartbeat CPU  1 instructions:   43000001 cycles:   16900319 heartbeat IPC: 2.41155 cumulative IPC: 2.54433 (Simulation time: 0 hr 4 min 1 sec) 
Heartbeat CPU  2 instructions:   43000003 cycles:   17002304 heartbeat IPC: 2.62186 cumulative IPC: 2.52907 (Simulation time: 0 hr 4 min 3 sec) 
Heartbeat CPU  0 instructions:   43000000 cycles:   17166589 heartbeat IPC: 2.60890 cumulative IPC: 2.50487 (Simulation time: 0 hr 4 min 5 sec) 
Heartbeat CPU  3 instructions:   43000000 cycles:   17192897 heartbeat IPC: 2.53524 cumulative IPC: 2.50103 (Simulation time: 0 hr 4 min 6 sec) 
Heartbeat CPU  1 instructions:   44000000 cycles:   17283603 heartbeat IPC: 2.60903 cumulative IPC: 2.54577 (Simulation time: 0 hr 4 min 7 sec) 
Heartbeat CPU  2 instructions:   44000000 cycles:   17390746 heartbeat IPC: 2.57438 cumulative IPC: 2.53008 (Simulation time: 0 hr 4 min 9 sec) 
Heartbeat CPU  0 instructions:   44000000 cycles:   17549917 heartbeat IPC: 2.60873 cumulative IPC: 2.50713 (Simulation time: 0 hr 4 min 11 sec) 
Heartbeat CPU  3 instructions:   44000000 cycles:   17589245 heartbeat IPC: 2.52304 cumulative IPC: 2.50153 (Simulation time: 0 hr 4 min 12 sec) 
Heartbeat CPU  1 instructions:   45000000 cycles:   17670459 heartbeat IPC: 2.58494 cumulative IPC: 2.54662 (Simulation time: 0 hr 4 min 13 sec) 
Heartbeat CPU  2 instructions:   45000002 cycles:   17784681 heartbeat IPC: 2.53849 cumulative IPC: 2.53027 (Simulation time: 0 hr 4 min 14 sec) 
Heartbeat CPU  0 instructions:   45000000 cycles:   17932684 heartbeat IPC: 2.61256 cumulative IPC: 2.50938 (Simulation time: 0 hr 4 min 17 sec) 
Heartbeat CPU  3 instructions:   45000002 cycles:   17984865 heartbeat IPC: 2.52768 cumulative IPC: 2.50210 (Simulation time: 0 hr 4 min 17 sec) 
Heartbeat CPU  1 instructions:   46000000 cycles:   18058053 heartbeat IPC: 2.58002 cumulative IPC: 2.54734 (Simulation time: 0 hr 4 min 18 sec) 
Heartbeat CPU  2 instructions:   46000003 cycles:   18227386 heartbeat IPC: 2.25884 cumulative IPC: 2.52368 (Simulation time: 0 hr 4 min 21 sec) 
Heartbeat CPU  0 instructions:   46000002 cycles:   18317585 heartbeat IPC: 2.59808 cumulative IPC: 2.51125 (Simulation time: 0 hr 4 min 22 sec) 
Heartbeat CPU  3 instructions:   46000001 cycles:   18375571 heartbeat IPC: 2.55947 cumulative IPC: 2.50332 (Simulation time: 0 hr 4 min 23 sec) 
Heartbeat CPU  1 instructions:   47000000 cycles:   18458465 heartbeat IPC: 2.49743 cumulative IPC: 2.54626 (Simulation time: 0 hr 4 min 24 sec) 
*** Reached end of trace for Core: 1 Repeating trace: /data3/CLOUD9/traces/cloud9_phase5_core1.trace.xz
Heartbeat CPU  2 instructions:   47000001 cycles:   18681939 heartbeat IPC: 2.19996 cumulative IPC: 2.51580 (Simulation time: 0 hr 4 min 27 sec) 
Heartbeat CPU  0 instructions:   47000001 cycles:   18708629 heartbeat IPC: 2.55725 cumulative IPC: 2.51221 (Simulation time: 0 hr 4 min 28 sec) 
*** Reached end of trace for Core: 2 Repeating trace: /data3/CLOUD9/traces/cloud9_phase5_core2.trace.xz
*** Reached end of trace for Core: 0 Repeating trace: /data3/CLOUD9/traces/cloud9_phase5_core0.trace.xz
Heartbeat CPU  3 instructions:   47000001 cycles:   18775895 heartbeat IPC: 2.49798 cumulative IPC: 2.50321 (Simulation time: 0 hr 4 min 28 sec) 
*** Reached end of trace for Core: 3 Repeating trace: /data3/CLOUD9/traces/cloud9_phase5_core3.trace.xz
Heartbeat CPU  1 instructions:   48000000 cycles:   18852495 heartbeat IPC: 2.53788 cumulative IPC: 2.54608 (Simulation time: 0 hr 4 min 29 sec) 
Heartbeat CPU  2 instructions:   48000000 cycles:   19084496 heartbeat IPC: 2.48412 cumulative IPC: 2.51513 (Simulation time: 0 hr 4 min 33 sec) 
Heartbeat CPU  0 instructions:   48000000 cycles:   19138352 heartbeat IPC: 2.32708 cumulative IPC: 2.50805 (Simulation time: 0 hr 4 min 33 sec) 
Heartbeat CPU  3 instructions:   48000000 cycles:   19187499 heartbeat IPC: 2.42952 cumulative IPC: 2.50163 (Simulation time: 0 hr 4 min 34 sec) 
Heartbeat CPU  1 instructions:   49000003 cycles:   19248200 heartbeat IPC: 2.52714 cumulative IPC: 2.54569 (Simulation time: 0 hr 4 min 35 sec) 
Heartbeat CPU  2 instructions:   49000002 cycles:   19465914 heartbeat IPC: 2.62180 cumulative IPC: 2.51722 (Simulation time: 0 hr 4 min 38 sec) 
Heartbeat CPU  0 instructions:   49000001 cycles:   19534506 heartbeat IPC: 2.52427 cumulative IPC: 2.50838 (Simulation time: 0 hr 4 min 39 sec) 
Heartbeat CPU  3 instructions:   49000000 cycles:   19630258 heartbeat IPC: 2.25856 cumulative IPC: 2.49615 (Simulation time: 0 hr 4 min 40 sec) 
Heartbeat CPU  1 instructions:   50000000 cycles:   19644660 heartbeat IPC: 2.52232 cumulative IPC: 2.54522 (Simulation time: 0 hr 4 min 40 sec) 
Heartbeat CPU  2 instructions:   50000000 cycles:   19849375 heartbeat IPC: 2.60782 cumulative IPC: 2.51897 (Simulation time: 0 hr 4 min 43 sec) 
Heartbeat CPU  0 instructions:   50000000 cycles:   19931217 heartbeat IPC: 2.52072 cumulative IPC: 2.50863 (Simulation time: 0 hr 4 min 44 sec) 
Heartbeat CPU  1 instructions:   51000000 cycles:   20040202 heartbeat IPC: 2.52818 cumulative IPC: 0.04990 (Simulation time: 0 hr 4 min 46 sec) 
Heartbeat CPU  3 instructions:   50000000 cycles:   20078469 heartbeat IPC: 2.23109 cumulative IPC: 2.49023 (Simulation time: 0 hr 4 min 46 sec) 

Warmup complete CPU  0 instructions:   50366727 cycles:   20078469 (Simulation time: 0 hr 4 min 46 sec) 
Warmup complete CPU  1 instructions:   51096964 cycles:   20078469 (Simulation time: 0 hr 4 min 46 sec) 
Warmup complete CPU  2 instructions:   50600741 cycles:   20078470 (Simulation time: 0 hr 4 min 46 sec) 
Warmup complete CPU  3 instructions:   50000004 cycles:   20078470 (Simulation time: 0 hr 4 min 46 sec) 

Heartbeat CPU  2 instructions:   51000000 cycles:   22914820 heartbeat IPC: 0.32622 cumulative IPC: 0.14077 (Simulation time: 0 hr 4 min 50 sec) 
Heartbeat CPU  0 instructions:   51000000 cycles:   23497675 heartbeat IPC: 0.28039 cumulative IPC: 0.18521 (Simulation time: 0 hr 4 min 51 sec) 
Heartbeat CPU  1 instructions:   52000000 cycles:   26195073 heartbeat IPC: 0.16247 cumulative IPC: 0.14764 (Simulation time: 0 hr 4 min 55 sec) 
Heartbeat CPU  3 instructions:   51000000 cycles:   28844872 heartbeat IPC: 0.11407 cumulative IPC: 0.11407 (Simulation time: 0 hr 4 min 58 sec) 
Heartbeat CPU  0 instructions:   52000000 cycles:   29016644 heartbeat IPC: 0.18119 cumulative IPC: 0.18273 (Simulation time: 0 hr 4 min 58 sec) 
Heartbeat CPU  2 instructions:   52000000 cycles:   29831739 heartbeat IPC: 0.14457 cumulative IPC: 0.14347 (Simulation time: 0 hr 4 min 59 sec) 
Heartbeat CPU  1 instructions:   53000003 cycles:   32974796 heartbeat IPC: 0.14750 cumulative IPC: 0.14756 (Simulation time: 0 hr 5 min 4 sec) 
Heartbeat CPU  0 instructions:   53000002 cycles:   35004984 heartbeat IPC: 0.16699 cumulative IPC: 0.17642 (Simulation time: 0 hr 5 min 7 sec) 
Heartbeat CPU  3 instructions:   52000000 cycles:   35645262 heartbeat IPC: 0.14705 cumulative IPC: 0.12848 (Simulation time: 0 hr 5 min 7 sec) 
Heartbeat CPU  2 instructions:   53000003 cycles:   36921547 heartbeat IPC: 0.14105 cumulative IPC: 0.14245 (Simulation time: 0 hr 5 min 9 sec) 
Heartbeat CPU  1 instructions:   54000000 cycles:   39764898 heartbeat IPC: 0.14727 cumulative IPC: 0.14746 (Simulation time: 0 hr 5 min 13 sec) 
Heartbeat CPU  0 instructions:   54000001 cycles:   40505459 heartbeat IPC: 0.18180 cumulative IPC: 0.17787 (Simulation time: 0 hr 5 min 14 sec) 
Heartbeat CPU  3 instructions:   53000000 cycles:   42546466 heartbeat IPC: 0.14490 cumulative IPC: 0.13352 (Simulation time: 0 hr 5 min 17 sec) 
Heartbeat CPU  2 instructions:   54000000 cycles:   44091074 heartbeat IPC: 0.13948 cumulative IPC: 0.14156 (Simulation time: 0 hr 5 min 19 sec) 
Heartbeat CPU  0 instructions:   55000000 cycles:   45802486 heartbeat IPC: 0.18878 cumulative IPC: 0.18011 (Simulation time: 0 hr 5 min 22 sec) 
Heartbeat CPU  1 instructions:   55000003 cycles:   46522393 heartbeat IPC: 0.14798 cumulative IPC: 0.14760 (Simulation time: 0 hr 5 min 23 sec) 
Heartbeat CPU  3 instructions:   54000002 cycles:   49678072 heartbeat IPC: 0.14022 cumulative IPC: 0.13514 (Simulation time: 0 hr 5 min 27 sec) 
Heartbeat CPU  2 instructions:   55000001 cycles:   51231465 heartbeat IPC: 0.14005 cumulative IPC: 0.14121 (Simulation time: 0 hr 5 min 29 sec) 
Heartbeat CPU  0 instructions:   56000000 cycles:   51859013 heartbeat IPC: 0.16511 cumulative IPC: 0.17726 (Simulation time: 0 hr 5 min 30 sec) 
Heartbeat CPU  1 instructions:   56000000 cycles:   53362916 heartbeat IPC: 0.14619 cumulative IPC: 0.14731 (Simulation time: 0 hr 5 min 32 sec) 
Heartbeat CPU  3 instructions:   55000002 cycles:   56934082 heartbeat IPC: 0.13782 cumulative IPC: 0.13566 (Simulation time: 0 hr 5 min 37 sec) 
Heartbeat CPU  0 instructions:   57000002 cycles:   57553875 heartbeat IPC: 0.17560 cumulative IPC: 0.17700 (Simulation time: 0 hr 5 min 38 sec) 
Heartbeat CPU  2 instructions:   56000000 cycles:   58303295 heartbeat IPC: 0.14141 cumulative IPC: 0.14125 (Simulation time: 0 hr 5 min 39 sec) 
Heartbeat CPU  1 instructions:   57000001 cycles:   60201174 heartbeat IPC: 0.14624 cumulative IPC: 0.14712 (Simulation time: 0 hr 5 min 41 sec) 
Heartbeat CPU  0 instructions:   58000001 cycles:   62802058 heartbeat IPC: 0.19054 cumulative IPC: 0.17867 (Simulation time: 0 hr 5 min 45 sec) 
Heartbeat CPU  3 instructions:   56000000 cycles:   64216518 heartbeat IPC: 0.13732 cumulative IPC: 0.13594 (Simulation time: 0 hr 5 min 47 sec) 
Heartbeat CPU  2 instructions:   57000001 cycles:   65350818 heartbeat IPC: 0.14189 cumulative IPC: 0.14135 (Simulation time: 0 hr 5 min 48 sec) 
Heartbeat CPU  1 instructions:   58000000 cycles:   67040215 heartbeat IPC: 0.14622 cumulative IPC: 0.14699 (Simulation time: 0 hr 5 min 51 sec) 
Heartbeat CPU  0 instructions:   59000003 cycles:   68637085 heartbeat IPC: 0.17138 cumulative IPC: 0.17779 (Simulation time: 0 hr 5 min 53 sec) 
Heartbeat CPU  3 instructions:   57000001 cycles:   71496163 heartbeat IPC: 0.13737 cumulative IPC: 0.13614 (Simulation time: 0 hr 5 min 57 sec) 
Heartbeat CPU  2 instructions:   58000002 cycles:   72336373 heartbeat IPC: 0.14315 cumulative IPC: 0.14159 (Simulation time: 0 hr 5 min 58 sec) 
Heartbeat CPU  1 instructions:   59000002 cycles:   73933100 heartbeat IPC: 0.14508 cumulative IPC: 0.14675 (Simulation time: 0 hr 6 min 0 sec) 
Heartbeat CPU  0 instructions:   60000000 cycles:   74075225 heartbeat IPC: 0.18389 cumulative IPC: 0.17840 (Simulation time: 0 hr 6 min 0 sec) 
Heartbeat CPU  3 instructions:   58000000 cycles:   78771579 heartbeat IPC: 0.13745 cumulative IPC: 0.13630 (Simulation time: 0 hr 6 min 7 sec) 
Heartbeat CPU  2 instructions:   59000001 cycles:   79434609 heartbeat IPC: 0.14088 cumulative IPC: 0.14151 (Simulation time: 0 hr 6 min 8 sec) 
Heartbeat CPU  0 instructions:   61000001 cycles:   80020388 heartbeat IPC: 0.16820 cumulative IPC: 0.17739 (Simulation time: 0 hr 6 min 8 sec) 
Heartbeat CPU  1 instructions:   60000000 cycles:   80630297 heartbeat IPC: 0.14932 cumulative IPC: 0.14703 (Simulation time: 0 hr 6 min 9 sec) 
Heartbeat CPU  0 instructions:   62000000 cycles:   85799200 heartbeat IPC: 0.17305 cumulative IPC: 0.17701 (Simulation time: 0 hr 6 min 16 sec) 
Heartbeat CPU  3 instructions:   59000001 cycles:   86006996 heartbeat IPC: 0.13821 cumulative IPC: 0.13651 (Simulation time: 0 hr 6 min 17 sec) 
Heartbeat CPU  2 instructions:   60000000 cycles:   86499241 heartbeat IPC: 0.14155 cumulative IPC: 0.14151 (Simulation time: 0 hr 6 min 17 sec) 
Heartbeat CPU  1 instructions:   61000001 cycles:   87183319 heartbeat IPC: 0.15260 cumulative IPC: 0.14758 (Simulation time: 0 hr 6 min 18 sec) 
Heartbeat CPU  0 instructions:   63000000 cycles:   91380317 heartbeat IPC: 0.17918 cumulative IPC: 0.17718 (Simulation time: 0 hr 6 min 24 sec) 
Heartbeat CPU  3 instructions:   60000000 cycles:   93200865 heartbeat IPC: 0.13901 cumulative IPC: 0.13676 (Simulation time: 0 hr 6 min 27 sec) 
Heartbeat CPU  2 instructions:   61000003 cycles:   93617103 heartbeat IPC: 0.14049 cumulative IPC: 0.14141 (Simulation time: 0 hr 6 min 27 sec) 
Heartbeat CPU  1 instructions:   62000000 cycles:   93688617 heartbeat IPC: 0.15372 cumulative IPC: 0.14812 (Simulation time: 0 hr 6 min 28 sec) 
Heartbeat CPU  0 instructions:   64000000 cycles:   96828142 heartbeat IPC: 0.18356 cumulative IPC: 0.17763 (Simulation time: 0 hr 6 min 32 sec) 
Heartbeat CPU  1 instructions:   63000003 cycles:  100171789 heartbeat IPC: 0.15425 cumulative IPC: 0.14861 (Simulation time: 0 hr 6 min 37 sec) 
Heartbeat CPU  3 instructions:   61000002 cycles:  100400223 heartbeat IPC: 0.13890 cumulative IPC: 0.13695 (Simulation time: 0 hr 6 min 37 sec) 
Heartbeat CPU  2 instructions:   62000002 cycles:  100702001 heartbeat IPC: 0.14115 cumulative IPC: 0.14139 (Simulation time: 0 hr 6 min 37 sec) 
Heartbeat CPU  0 instructions:   65000002 cycles:  102808978 heartbeat IPC: 0.16720 cumulative IPC: 0.17688 (Simulation time: 0 hr 6 min 40 sec) 
Heartbeat CPU  1 instructions:   64000000 cycles:  106665980 heartbeat IPC: 0.15398 cumulative IPC: 0.14902 (Simulation time: 0 hr 6 min 46 sec) 
Heartbeat CPU  3 instructions:   62000003 cycles:  107594324 heartbeat IPC: 0.13900 cumulative IPC: 0.13712 (Simulation time: 0 hr 6 min 47 sec) 
Heartbeat CPU  2 instructions:   63000002 cycles:  107867773 heartbeat IPC: 0.13955 cumulative IPC: 0.14124 (Simulation time: 0 hr 6 min 47 sec) 
Heartbeat CPU  0 instructions:   66000000 cycles:  108693414 heartbeat IPC: 0.16994 cumulative IPC: 0.17642 (Simulation time: 0 hr 6 min 48 sec) 
Heartbeat CPU  1 instructions:   65000000 cycles:  113203608 heartbeat IPC: 0.15296 cumulative IPC: 0.14929 (Simulation time: 0 hr 6 min 55 sec) 
Heartbeat CPU  0 instructions:   67000000 cycles:  114496420 heartbeat IPC: 0.17232 cumulative IPC: 0.17617 (Simulation time: 0 hr 6 min 56 sec) 
Heartbeat CPU  3 instructions:   63000003 cycles:  114815796 heartbeat IPC: 0.13848 cumulative IPC: 0.13722 (Simulation time: 0 hr 6 min 57 sec) 
Heartbeat CPU  2 instructions:   64000000 cycles:  114993176 heartbeat IPC: 0.14034 cumulative IPC: 0.14117 (Simulation time: 0 hr 6 min 57 sec) 
Heartbeat CPU  1 instructions:   66000002 cycles:  119752111 heartbeat IPC: 0.15271 cumulative IPC: 0.14952 (Simulation time: 0 hr 7 min 4 sec) 
Heartbeat CPU  0 instructions:   68000000 cycles:  119900211 heartbeat IPC: 0.18506 cumulative IPC: 0.17665 (Simulation time: 0 hr 7 min 4 sec) 
Heartbeat CPU  3 instructions:   64000000 cycles:  122014158 heartbeat IPC: 0.13892 cumulative IPC: 0.13734 (Simulation time: 0 hr 7 min 7 sec) 
Heartbeat CPU  2 instructions:   65000003 cycles:  122029756 heartbeat IPC: 0.14211 cumulative IPC: 0.14124 (Simulation time: 0 hr 7 min 7 sec) 
Heartbeat CPU  1 instructions:   67000001 cycles:  126260133 heartbeat IPC: 0.15366 cumulative IPC: 0.14977 (Simulation time: 0 hr 7 min 13 sec) 
Heartbeat CPU  0 instructions:   69000003 cycles:  126330800 heartbeat IPC: 0.15551 cumulative IPC: 0.17537 (Simulation time: 0 hr 7 min 13 sec) 
Heartbeat CPU  3 instructions:   65000001 cycles:  129201163 heartbeat IPC: 0.13914 cumulative IPC: 0.13746 (Simulation time: 0 hr 7 min 17 sec) 
Heartbeat CPU  2 instructions:   66000002 cycles:  129205924 heartbeat IPC: 0.13935 cumulative IPC: 0.14111 (Simulation time: 0 hr 7 min 17 sec) 
Heartbeat CPU  1 instructions:   68000000 cycles:  132790499 heartbeat IPC: 0.15313 cumulative IPC: 0.14997 (Simulation time: 0 hr 7 min 21 sec) 
Heartbeat CPU  0 instructions:   70000002 cycles:  133714071 heartbeat IPC: 0.13544 cumulative IPC: 0.17277 (Simulation time: 0 hr 7 min 23 sec) 
Heartbeat CPU  2 instructions:   67000000 cycles:  136275613 heartbeat IPC: 0.14145 cumulative IPC: 0.14113 (Simulation time: 0 hr 7 min 26 sec) 
Heartbeat CPU  3 instructions:   66000002 cycles:  136392272 heartbeat IPC: 0.13906 cumulative IPC: 0.13756 (Simulation time: 0 hr 7 min 26 sec) 
Heartbeat CPU  1 instructions:   69000001 cycles:  139334787 heartbeat IPC: 0.15281 cumulative IPC: 0.15012 (Simulation time: 0 hr 7 min 30 sec) 
Heartbeat CPU  0 instructions:   71000001 cycles:  141487289 heartbeat IPC: 0.12865 cumulative IPC: 0.16995 (Simulation time: 0 hr 7 min 33 sec) 
Heartbeat CPU  2 instructions:   68000000 cycles:  143496095 heartbeat IPC: 0.13849 cumulative IPC: 0.14098 (Simulation time: 0 hr 7 min 36 sec) 
Heartbeat CPU  3 instructions:   67000000 cycles:  143587364 heartbeat IPC: 0.13898 cumulative IPC: 0.13764 (Simulation time: 0 hr 7 min 36 sec) 
Heartbeat CPU  1 instructions:   70000000 cycles:  145820229 heartbeat IPC: 0.15419 cumulative IPC: 0.15033 (Simulation time: 0 hr 7 min 39 sec) 
Heartbeat CPU  0 instructions:   72000000 cycles:  149233579 heartbeat IPC: 0.12909 cumulative IPC: 0.16750 (Simulation time: 0 hr 7 min 43 sec) 
Heartbeat CPU  2 instructions:   69000000 cycles:  150581884 heartbeat IPC: 0.14113 cumulative IPC: 0.14099 (Simulation time: 0 hr 7 min 45 sec) 
Heartbeat CPU  3 instructions:   68000000 cycles:  150757852 heartbeat IPC: 0.13946 cumulative IPC: 0.13774 (Simulation time: 0 hr 7 min 45 sec) 
Heartbeat CPU  1 instructions:   71000002 cycles:  152326470 heartbeat IPC: 0.15370 cumulative IPC: 0.15050 (Simulation time: 0 hr 7 min 47 sec) 
Heartbeat CPU  2 instructions:   70000002 cycles:  156793733 heartbeat IPC: 0.16098 cumulative IPC: 0.14190 (Simulation time: 0 hr 7 min 55 sec) 
Heartbeat CPU  0 instructions:   73000001 cycles:  157178328 heartbeat IPC: 0.12587 cumulative IPC: 0.16509 (Simulation time: 0 hr 7 min 56 sec) 
Heartbeat CPU  3 instructions:   69000003 cycles:  157951909 heartbeat IPC: 0.13900 cumulative IPC: 0.13781 (Simulation time: 0 hr 7 min 57 sec) 
Heartbeat CPU  1 instructions:   72000000 cycles:  158888131 heartbeat IPC: 0.15240 cumulative IPC: 0.15059 (Simulation time: 0 hr 7 min 59 sec) 
Heartbeat CPU  2 instructions:   71000003 cycles:  162297986 heartbeat IPC: 0.18168 cumulative IPC: 0.14344 (Simulation time: 0 hr 8 min 4 sec) 
Heartbeat CPU  0 instructions:   74000000 cycles:  164820388 heartbeat IPC: 0.13085 cumulative IPC: 0.16328 (Simulation time: 0 hr 8 min 9 sec) 
Heartbeat CPU  3 instructions:   70000000 cycles:  165193968 heartbeat IPC: 0.13808 cumulative IPC: 0.13782 (Simulation time: 0 hr 8 min 9 sec) 
Heartbeat CPU  1 instructions:   73000000 cycles:  165463659 heartbeat IPC: 0.15208 cumulative IPC: 0.15066 (Simulation time: 0 hr 8 min 10 sec) 
Heartbeat CPU  2 instructions:   72000000 cycles:  167362188 heartbeat IPC: 0.19746 cumulative IPC: 0.14529 (Simulation time: 0 hr 8 min 13 sec) 
Heartbeat CPU  0 instructions:   75000001 cycles:  171792436 heartbeat IPC: 0.14343 cumulative IPC: 0.16237 (Simulation time: 0 hr 8 min 21 sec) 
Heartbeat CPU  1 instructions:   74000001 cycles:  172034150 heartbeat IPC: 0.15220 cumulative IPC: 0.15072 (Simulation time: 0 hr 8 min 21 sec) 
Heartbeat CPU  3 instructions:   71000001 cycles:  172427707 heartbeat IPC: 0.13824 cumulative IPC: 0.13784 (Simulation time: 0 hr 8 min 22 sec) 
Heartbeat CPU  2 instructions:   73000003 cycles:  173332752 heartbeat IPC: 0.16749 cumulative IPC: 0.14616 (Simulation time: 0 hr 8 min 23 sec) 
Heartbeat CPU  1 instructions:   75000003 cycles:  178632991 heartbeat IPC: 0.15154 cumulative IPC: 0.15076 (Simulation time: 0 hr 8 min 31 sec) 
Heartbeat CPU  0 instructions:   76000000 cycles:  178778950 heartbeat IPC: 0.14313 cumulative IPC: 0.16152 (Simulation time: 0 hr 8 min 31 sec) 
Heartbeat CPU  3 instructions:   72000000 cycles:  179681780 heartbeat IPC: 0.13785 cumulative IPC: 0.13784 (Simulation time: 0 hr 8 min 32 sec) 
Heartbeat CPU  2 instructions:   74000002 cycles:  181449467 heartbeat IPC: 0.12320 cumulative IPC: 0.14500 (Simulation time: 0 hr 8 min 34 sec) 
Heartbeat CPU  1 instructions:   76000000 cycles:  185185947 heartbeat IPC: 0.15260 cumulative IPC: 0.15083 (Simulation time: 0 hr 8 min 39 sec) 
Heartbeat CPU  0 instructions:   77000003 cycles:  185789922 heartbeat IPC: 0.14263 cumulative IPC: 0.16072 (Simulation time: 0 hr 8 min 40 sec) 
Heartbeat CPU  3 instructions:   73000000 cycles:  187010311 heartbeat IPC: 0.13645 cumulative IPC: 0.13778 (Simulation time: 0 hr 8 min 42 sec) 
Heartbeat CPU  2 instructions:   75000000 cycles:  188618928 heartbeat IPC: 0.13948 cumulative IPC: 0.14477 (Simulation time: 0 hr 8 min 44 sec) 
Heartbeat CPU  1 instructions:   77000000 cycles:  191723791 heartbeat IPC: 0.15296 cumulative IPC: 0.15091 (Simulation time: 0 hr 8 min 48 sec) 
Heartbeat CPU  0 instructions:   78000001 cycles:  192756713 heartbeat IPC: 0.14354 cumulative IPC: 0.16003 (Simulation time: 0 hr 8 min 50 sec) 
Heartbeat CPU  3 instructions:   74000000 cycles:  194287198 heartbeat IPC: 0.13742 cumulative IPC: 0.13777 (Simulation time: 0 hr 8 min 52 sec) 
Heartbeat CPU  2 instructions:   76000000 cycles:  195498050 heartbeat IPC: 0.14537 cumulative IPC: 0.14479 (Simulation time: 0 hr 8 min 53 sec) 
Heartbeat CPU  1 instructions:   78000002 cycles:  198261046 heartbeat IPC: 0.15297 cumulative IPC: 0.15099 (Simulation time: 0 hr 8 min 57 sec) 
Heartbeat CPU  0 instructions:   79000001 cycles:  199830917 heartbeat IPC: 0.14136 cumulative IPC: 0.15929 (Simulation time: 0 hr 8 min 59 sec) 
Heartbeat CPU  3 instructions:   75000002 cycles:  201557978 heartbeat IPC: 0.13754 cumulative IPC: 0.13776 (Simulation time: 0 hr 9 min 2 sec) 
Heartbeat CPU  2 instructions:   77000000 cycles:  202555709 heartbeat IPC: 0.14169 cumulative IPC: 0.14467 (Simulation time: 0 hr 9 min 3 sec) 
Heartbeat CPU  1 instructions:   79000003 cycles:  204796024 heartbeat IPC: 0.15302 cumulative IPC: 0.15106 (Simulation time: 0 hr 9 min 6 sec) 
Heartbeat CPU  0 instructions:   80000000 cycles:  206830201 heartbeat IPC: 0.14287 cumulative IPC: 0.15868 (Simulation time: 0 hr 9 min 9 sec) 
Heartbeat CPU  3 instructions:   76000000 cycles:  208827068 heartbeat IPC: 0.13757 cumulative IPC: 0.13775 (Simulation time: 0 hr 9 min 11 sec) 
Heartbeat CPU  2 instructions:   78000001 cycles:  209675829 heartbeat IPC: 0.14045 cumulative IPC: 0.14451 (Simulation time: 0 hr 9 min 12 sec) 
Heartbeat CPU  1 instructions:   80000000 cycles:  211332880 heartbeat IPC: 0.15298 cumulative IPC: 0.15112 (Simulation time: 0 hr 9 min 15 sec) 
Heartbeat CPU  0 instructions:   81000002 cycles:  213805944 heartbeat IPC: 0.14335 cumulative IPC: 0.15813 (Simulation time: 0 hr 9 min 18 sec) 
Heartbeat CPU  3 instructions:   77000002 cycles:  216069102 heartbeat IPC: 0.13808 cumulative IPC: 0.13776 (Simulation time: 0 hr 9 min 21 sec) 
Heartbeat CPU  2 instructions:   79000000 cycles:  216742245 heartbeat IPC: 0.14151 cumulative IPC: 0.14441 (Simulation time: 0 hr 9 min 22 sec) 
Heartbeat CPU  1 instructions:   81000000 cycles:  217889971 heartbeat IPC: 0.15251 cumulative IPC: 0.15117 (Simulation time: 0 hr 9 min 24 sec) 
Heartbeat CPU  0 instructions:   82000000 cycles:  220838675 heartbeat IPC: 0.14219 cumulative IPC: 0.15757 (Simulation time: 0 hr 9 min 28 sec) 
Heartbeat CPU  3 instructions:   78000000 cycles:  223439701 heartbeat IPC: 0.13567 cumulative IPC: 0.13769 (Simulation time: 0 hr 9 min 31 sec) 
Heartbeat CPU  2 instructions:   80000000 cycles:  223813330 heartbeat IPC: 0.14142 cumulative IPC: 0.14430 (Simulation time: 0 hr 9 min 32 sec) 
Heartbeat CPU  1 instructions:   82000001 cycles:  224520631 heartbeat IPC: 0.15081 cumulative IPC: 0.15116 (Simulation time: 0 hr 9 min 32 sec) 
Heartbeat CPU  0 instructions:   83000002 cycles:  227814023 heartbeat IPC: 0.14336 cumulative IPC: 0.15709 (Simulation time: 0 hr 9 min 37 sec) 
Heartbeat CPU  3 instructions:   79000002 cycles:  230760787 heartbeat IPC: 0.13659 cumulative IPC: 0.13765 (Simulation time: 0 hr 9 min 41 sec) 
Heartbeat CPU  2 instructions:   81000000 cycles:  230952205 heartbeat IPC: 0.14008 cumulative IPC: 0.14416 (Simulation time: 0 hr 9 min 41 sec) 
Heartbeat CPU  1 instructions:   83000002 cycles:  231101211 heartbeat IPC: 0.15196 cumulative IPC: 0.15118 (Simulation time: 0 hr 9 min 41 sec) 
Heartbeat CPU  0 instructions:   84000000 cycles:  234815058 heartbeat IPC: 0.14284 cumulative IPC: 0.15663 (Simulation time: 0 hr 9 min 46 sec) 
Heartbeat CPU  1 instructions:   84000000 cycles:  237728856 heartbeat IPC: 0.15088 cumulative IPC: 0.15117 (Simulation time: 0 hr 9 min 50 sec) 
Heartbeat CPU  2 instructions:   82000002 cycles:  238053076 heartbeat IPC: 0.14083 cumulative IPC: 0.14405 (Simulation time: 0 hr 9 min 51 sec) 
Heartbeat CPU  3 instructions:   80000000 cycles:  238091540 heartbeat IPC: 0.13641 cumulative IPC: 0.13761 (Simulation time: 0 hr 9 min 51 sec) 
Heartbeat CPU  0 instructions:   85000003 cycles:  241839034 heartbeat IPC: 0.14237 cumulative IPC: 0.15617 (Simulation time: 0 hr 9 min 56 sec) 
Heartbeat CPU  1 instructions:   85000000 cycles:  244407529 heartbeat IPC: 0.14973 cumulative IPC: 0.15113 (Simulation time: 0 hr 9 min 59 sec) 
Heartbeat CPU  2 instructions:   83000001 cycles:  245118512 heartbeat IPC: 0.14153 cumulative IPC: 0.14397 (Simulation time: 0 hr 10 min 0 sec) 
Heartbeat CPU  3 instructions:   81000000 cycles:  245470418 heartbeat IPC: 0.13552 cumulative IPC: 0.13754 (Simulation time: 0 hr 10 min 1 sec) 
Heartbeat CPU  0 instructions:   86000001 cycles:  248867325 heartbeat IPC: 0.14228 cumulative IPC: 0.15575 (Simulation time: 0 hr 10 min 5 sec) 
Heartbeat CPU  1 instructions:   86000002 cycles:  251683039 heartbeat IPC: 0.13745 cumulative IPC: 0.15070 (Simulation time: 0 hr 10 min 9 sec) 
Heartbeat CPU  2 instructions:   84000000 cycles:  252312794 heartbeat IPC: 0.13900 cumulative IPC: 0.14382 (Simulation time: 0 hr 10 min 10 sec) 
Heartbeat CPU  3 instructions:   82000002 cycles:  252367324 heartbeat IPC: 0.14499 cumulative IPC: 0.13776 (Simulation time: 0 hr 10 min 10 sec) 
Heartbeat CPU  0 instructions:   87000003 cycles:  255824571 heartbeat IPC: 0.14374 cumulative IPC: 0.15539 (Simulation time: 0 hr 10 min 14 sec) 
Heartbeat CPU  3 instructions:   83000003 cycles:  258931227 heartbeat IPC: 0.15235 cumulative IPC: 0.13816 (Simulation time: 0 hr 10 min 18 sec) 
Heartbeat CPU  1 instructions:   87000002 cycles:  259118893 heartbeat IPC: 0.13448 cumulative IPC: 0.15020 (Simulation time: 0 hr 10 min 19 sec) 
Heartbeat CPU  2 instructions:   85000003 cycles:  259397952 heartbeat IPC: 0.14114 cumulative IPC: 0.14374 (Simulation time: 0 hr 10 min 19 sec) 
Heartbeat CPU  0 instructions:   88000000 cycles:  262899055 heartbeat IPC: 0.14135 cumulative IPC: 0.15498 (Simulation time: 0 hr 10 min 24 sec) 
Heartbeat CPU  3 instructions:   84000000 cycles:  265476071 heartbeat IPC: 0.15279 cumulative IPC: 0.13855 (Simulation time: 0 hr 10 min 27 sec) 
Heartbeat CPU  2 instructions:   86000001 cycles:  266506491 heartbeat IPC: 0.14068 cumulative IPC: 0.14365 (Simulation time: 0 hr 10 min 29 sec) 
Heartbeat CPU  1 instructions:   88000000 cycles:  266535332 heartbeat IPC: 0.13484 cumulative IPC: 0.14973 (Simulation time: 0 hr 10 min 29 sec) 
Heartbeat CPU  0 instructions:   89000003 cycles:  270167552 heartbeat IPC: 0.13758 cumulative IPC: 0.15448 (Simulation time: 0 hr 10 min 34 sec) 
Heartbeat CPU  3 instructions:   85000001 cycles:  272020309 heartbeat IPC: 0.15281 cumulative IPC: 0.13892 (Simulation time: 0 hr 10 min 36 sec) 
Heartbeat CPU  2 instructions:   87000000 cycles:  273606133 heartbeat IPC: 0.14085 cumulative IPC: 0.14357 (Simulation time: 0 hr 10 min 38 sec) 
Heartbeat CPU  1 instructions:   89000001 cycles:  274036748 heartbeat IPC: 0.13331 cumulative IPC: 0.14925 (Simulation time: 0 hr 10 min 39 sec) 
Heartbeat CPU  0 instructions:   90000001 cycles:  277191184 heartbeat IPC: 0.14238 cumulative IPC: 0.15415 (Simulation time: 0 hr 10 min 43 sec) 
Heartbeat CPU  3 instructions:   86000003 cycles:  278569419 heartbeat IPC: 0.15269 cumulative IPC: 0.13927 (Simulation time: 0 hr 10 min 45 sec) 
Heartbeat CPU  2 instructions:   88000000 cycles:  280709599 heartbeat IPC: 0.14078 cumulative IPC: 0.14349 (Simulation time: 0 hr 10 min 48 sec) 
Heartbeat CPU  1 instructions:   90000003 cycles:  281213077 heartbeat IPC: 0.13935 cumulative IPC: 0.14898 (Simulation time: 0 hr 10 min 48 sec) 
Heartbeat CPU  0 instructions:   91000002 cycles:  284160771 heartbeat IPC: 0.14348 cumulative IPC: 0.15387 (Simulation time: 0 hr 10 min 52 sec) 
Heartbeat CPU  3 instructions:   87000001 cycles:  285134493 heartbeat IPC: 0.15232 cumulative IPC: 0.13959 (Simulation time: 0 hr 10 min 54 sec) 
Heartbeat CPU  2 instructions:   89000000 cycles:  287776238 heartbeat IPC: 0.14151 cumulative IPC: 0.14344 (Simulation time: 0 hr 10 min 57 sec) 
Heartbeat CPU  1 instructions:   91000000 cycles:  288679607 heartbeat IPC: 0.13393 cumulative IPC: 0.14856 (Simulation time: 0 hr 10 min 59 sec) 
Heartbeat CPU  0 instructions:   92000000 cycles:  291197820 heartbeat IPC: 0.14210 cumulative IPC: 0.15356 (Simulation time: 0 hr 11 min 2 sec) 
Heartbeat CPU  3 instructions:   88000000 cycles:  291704512 heartbeat IPC: 0.15221 cumulative IPC: 0.13990 (Simulation time: 0 hr 11 min 3 sec) 
Heartbeat CPU  2 instructions:   90000000 cycles:  294898428 heartbeat IPC: 0.14041 cumulative IPC: 0.14336 (Simulation time: 0 hr 11 min 7 sec) 
Heartbeat CPU  1 instructions:   92000000 cycles:  295805477 heartbeat IPC: 0.14033 cumulative IPC: 0.14835 (Simulation time: 0 hr 11 min 8 sec) 
Heartbeat CPU  3 instructions:   89000003 cycles:  298252613 heartbeat IPC: 0.15272 cumulative IPC: 0.14020 (Simulation time: 0 hr 11 min 11 sec) 
Heartbeat CPU  0 instructions:   93000000 cycles:  298275579 heartbeat IPC: 0.14129 cumulative IPC: 0.15325 (Simulation time: 0 hr 11 min 11 sec) 
Heartbeat CPU  2 instructions:   91000000 cycles:  302003040 heartbeat IPC: 0.14075 cumulative IPC: 0.14330 (Simulation time: 0 hr 11 min 16 sec) 
Heartbeat CPU  1 instructions:   93000002 cycles:  303247115 heartbeat IPC: 0.13438 cumulative IPC: 0.14798 (Simulation time: 0 hr 11 min 18 sec) 
Heartbeat CPU  3 instructions:   90000002 cycles:  304810040 heartbeat IPC: 0.15250 cumulative IPC: 0.14048 (Simulation time: 0 hr 11 min 20 sec) 
Heartbeat CPU  0 instructions:   94000003 cycles:  305384861 heartbeat IPC: 0.14066 cumulative IPC: 0.15293 (Simulation time: 0 hr 11 min 21 sec) 
*** Reached end of trace for Core: 0 Repeating trace: /data3/CLOUD9/traces/cloud9_phase5_core0.trace.xz
Heartbeat CPU  2 instructions:   92000000 cycles:  309144748 heartbeat IPC: 0.14002 cumulative IPC: 0.14322 (Simulation time: 0 hr 11 min 26 sec) 
Heartbeat CPU  1 instructions:   94000003 cycles:  310436202 heartbeat IPC: 0.13910 cumulative IPC: 0.14776 (Simulation time: 0 hr 11 min 28 sec) 
Heartbeat CPU  0 instructions:   95000002 cycles:  311304593 heartbeat IPC: 0.16893 cumulative IPC: 0.15326 (Simulation time: 0 hr 11 min 29 sec) 
Heartbeat CPU  3 instructions:   91000003 cycles:  311416074 heartbeat IPC: 0.15138 cumulative IPC: 0.14073 (Simulation time: 0 hr 11 min 30 sec) 
*** Reached end of trace for Core: 1 Repeating trace: /data3/CLOUD9/traces/cloud9_phase5_core1.trace.xz
Heartbeat CPU  2 instructions:   93000000 cycles:  314860131 heartbeat IPC: 0.17497 cumulative IPC: 0.14383 (Simulation time: 0 hr 11 min 35 sec) 
Heartbeat CPU  0 instructions:   96000000 cycles:  317318390 heartbeat IPC: 0.16628 cumulative IPC: 0.15352 (Simulation time: 0 hr 11 min 38 sec) 
Heartbeat CPU  1 instructions:   95000003 cycles:  317371388 heartbeat IPC: 0.14419 cumulative IPC: 0.14768 (Simulation time: 0 hr 11 min 38 sec) 
Heartbeat CPU  3 instructions:   92000000 cycles:  317985568 heartbeat IPC: 0.15222 cumulative IPC: 0.14098 (Simulation time: 0 hr 11 min 39 sec) 
Heartbeat CPU  2 instructions:   94000003 cycles:  320687616 heartbeat IPC: 0.17160 cumulative IPC: 0.14437 (Simulation time: 0 hr 11 min 43 sec) 
*** Reached end of trace for Core: 2 Repeating trace: /data3/CLOUD9/traces/cloud9_phase5_core2.trace.xz
Heartbeat CPU  0 instructions:   97000001 cycles:  323263424 heartbeat IPC: 0.16821 cumulative IPC: 0.15381 (Simulation time: 0 hr 11 min 47 sec) 
Heartbeat CPU  1 instructions:   96000000 cycles:  324134840 heartbeat IPC: 0.14785 cumulative IPC: 0.14768 (Simulation time: 0 hr 11 min 48 sec) 
Heartbeat CPU  3 instructions:   93000000 cycles:  324560056 heartbeat IPC: 0.15210 cumulative IPC: 0.14122 (Simulation time: 0 hr 11 min 49 sec) 
Heartbeat CPU  2 instructions:   95000003 cycles:  327507237 heartbeat IPC: 0.14664 cumulative IPC: 0.14442 (Simulation time: 0 hr 11 min 53 sec) 
Heartbeat CPU  0 instructions:   98000000 cycles:  328814727 heartbeat IPC: 0.18014 cumulative IPC: 0.15428 (Simulation time: 0 hr 11 min 55 sec) 
Heartbeat CPU  1 instructions:   97000001 cycles:  330931752 heartbeat IPC: 0.14713 cumulative IPC: 0.14767 (Simulation time: 0 hr 11 min 58 sec) 
Heartbeat CPU  3 instructions:   94000000 cycles:  331139507 heartbeat IPC: 0.15199 cumulative IPC: 0.14145 (Simulation time: 0 hr 11 min 58 sec) 
*** Reached end of trace for Core: 3 Repeating trace: /data3/CLOUD9/traces/cloud9_phase5_core3.trace.xz
Heartbeat CPU  0 instructions:   99000000 cycles:  334173910 heartbeat IPC: 0.18660 cumulative IPC: 0.15484 (Simulation time: 0 hr 12 min 3 sec) 
Heartbeat CPU  2 instructions:   96000000 cycles:  334614022 heartbeat IPC: 0.14071 cumulative IPC: 0.14434 (Simulation time: 0 hr 12 min 3 sec) 
Heartbeat CPU  3 instructions:   95000001 cycles:  336810008 heartbeat IPC: 0.17635 cumulative IPC: 0.14208 (Simulation time: 0 hr 12 min 6 sec) 
Heartbeat CPU  1 instructions:   98000000 cycles:  337731707 heartbeat IPC: 0.14706 cumulative IPC: 0.14765 (Simulation time: 0 hr 12 min 8 sec) 
Heartbeat CPU  0 instructions:  100000000 cycles:  340242645 heartbeat IPC: 0.16478 cumulative IPC: 0.15502 (Simulation time: 0 hr 12 min 12 sec) 
Heartbeat CPU  2 instructions:   97000001 cycles:  341717083 heartbeat IPC: 0.14078 cumulative IPC: 0.14426 (Simulation time: 0 hr 12 min 14 sec) 
Heartbeat CPU  3 instructions:   96000000 cycles:  342115925 heartbeat IPC: 0.18847 cumulative IPC: 0.14284 (Simulation time: 0 hr 12 min 14 sec) 
Heartbeat CPU  1 instructions:   99000002 cycles:  344492587 heartbeat IPC: 0.14791 cumulative IPC: 0.14766 (Simulation time: 0 hr 12 min 18 sec) 
Heartbeat CPU  0 instructions:  101000000 cycles:  345759515 heartbeat IPC: 0.18126 cumulative IPC: 0.15547 (Simulation time: 0 hr 12 min 20 sec) 
Heartbeat CPU  3 instructions:   97000001 cycles:  347316681 heartbeat IPC: 0.19228 cumulative IPC: 0.14363 (Simulation time: 0 hr 12 min 22 sec) 
Heartbeat CPU  2 instructions:   98000002 cycles:  348811282 heartbeat IPC: 0.14096 cumulative IPC: 0.14419 (Simulation time: 0 hr 12 min 25 sec) 
Heartbeat CPU  0 instructions:  102000003 cycles:  350977805 heartbeat IPC: 0.19163 cumulative IPC: 0.15604 (Simulation time: 0 hr 12 min 28 sec) 
Heartbeat CPU  1 instructions:  100000000 cycles:  351269757 heartbeat IPC: 0.14755 cumulative IPC: 0.14766 (Simulation time: 0 hr 12 min 28 sec) 
Heartbeat CPU  2 instructions:   99000001 cycles:  355706360 heartbeat IPC: 0.14503 cumulative IPC: 0.14421 (Simulation time: 0 hr 12 min 34 sec) 
Heartbeat CPU  3 instructions:   98000002 cycles:  355810696 heartbeat IPC: 0.11773 cumulative IPC: 0.14297 (Simulation time: 0 hr 12 min 34 sec) 
Heartbeat CPU  0 instructions:  103000000 cycles:  357074609 heartbeat IPC: 0.16402 cumulative IPC: 0.15618 (Simulation time: 0 hr 12 min 36 sec) 
Heartbeat CPU  1 instructions:  101000000 cycles:  358066115 heartbeat IPC: 0.14714 cumulative IPC: 0.14765 (Simulation time: 0 hr 12 min 37 sec) 
Heartbeat CPU  3 instructions:   99000000 cycles:  362696762 heartbeat IPC: 0.14522 cumulative IPC: 0.14302 (Simulation time: 0 hr 12 min 44 sec) 
Heartbeat CPU  0 instructions:  104000000 cycles:  362792562 heartbeat IPC: 0.17489 cumulative IPC: 0.15650 (Simulation time: 0 hr 12 min 44 sec) 
Heartbeat CPU  2 instructions:  100000000 cycles:  362796224 heartbeat IPC: 0.14105 cumulative IPC: 0.14414 (Simulation time: 0 hr 12 min 44 sec) 
Heartbeat CPU  1 instructions:  102000000 cycles:  364819425 heartbeat IPC: 0.14808 cumulative IPC: 0.14766 (Simulation time: 0 hr 12 min 47 sec) 
Heartbeat CPU  0 instructions:  105000000 cycles:  367936199 heartbeat IPC: 0.19441 cumulative IPC: 0.15706 (Simulation time: 0 hr 12 min 51 sec) 
Heartbeat CPU  3 instructions:  100000000 cycles:  369566850 heartbeat IPC: 0.14556 cumulative IPC: 0.14307 (Simulation time: 0 hr 12 min 53 sec) 
Heartbeat CPU  2 instructions:  101000001 cycles:  369965049 heartbeat IPC: 0.13949 cumulative IPC: 0.14404 (Simulation time: 0 hr 12 min 54 sec) 
Heartbeat CPU  1 instructions:  103000002 cycles:  371647326 heartbeat IPC: 0.14646 cumulative IPC: 0.14763 (Simulation time: 0 hr 12 min 56 sec) 
Heartbeat CPU  0 instructions:  106000001 cycles:  373856863 heartbeat IPC: 0.16890 cumulative IPC: 0.15725 (Simulation time: 0 hr 12 min 59 sec) 
Heartbeat CPU  3 instructions:  101000000 cycles:  376648605 heartbeat IPC: 0.14121 cumulative IPC: 0.14303 (Simulation time: 0 hr 13 min 3 sec) 
Heartbeat CPU  2 instructions:  102000000 cycles:  377084724 heartbeat IPC: 0.14046 cumulative IPC: 0.14397 (Simulation time: 0 hr 13 min 4 sec) 
Heartbeat CPU  1 instructions:  104000000 cycles:  378482963 heartbeat IPC: 0.14629 cumulative IPC: 0.14761 (Simulation time: 0 hr 13 min 5 sec) 
Heartbeat CPU  0 instructions:  107000000 cycles:  379262349 heartbeat IPC: 0.18500 cumulative IPC: 0.15767 (Simulation time: 0 hr 13 min 7 sec) 
Heartbeat CPU  3 instructions:  102000002 cycles:  383902817 heartbeat IPC: 0.13785 cumulative IPC: 0.14293 (Simulation time: 0 hr 13 min 13 sec) 
Heartbeat CPU  2 instructions:  103000000 cycles:  384140731 heartbeat IPC: 0.14172 cumulative IPC: 0.14393 (Simulation time: 0 hr 13 min 13 sec) 
Heartbeat CPU  0 instructions:  108000000 cycles:  385150808 heartbeat IPC: 0.16982 cumulative IPC: 0.15787 (Simulation time: 0 hr 13 min 15 sec) 
Heartbeat CPU  1 instructions:  105000000 cycles:  385317104 heartbeat IPC: 0.14632 cumulative IPC: 0.14758 (Simulation time: 0 hr 13 min 15 sec) 
Heartbeat CPU  0 instructions:  109000000 cycles:  390942382 heartbeat IPC: 0.17266 cumulative IPC: 0.15810 (Simulation time: 0 hr 13 min 23 sec) 
Heartbeat CPU  3 instructions:  103000001 cycles:  391175501 heartbeat IPC: 0.13750 cumulative IPC: 0.14282 (Simulation time: 0 hr 13 min 23 sec) 
Heartbeat CPU  2 instructions:  104000000 cycles:  391219611 heartbeat IPC: 0.14127 cumulative IPC: 0.14388 (Simulation time: 0 hr 13 min 23 sec) 
Heartbeat CPU  1 instructions:  106000000 cycles:  392196992 heartbeat IPC: 0.14535 cumulative IPC: 0.14754 (Simulation time: 0 hr 13 min 24 sec) 
Heartbeat CPU  0 instructions:  110000000 cycles:  396610451 heartbeat IPC: 0.17643 cumulative IPC: 0.15838 (Simulation time: 0 hr 13 min 30 sec) 
Heartbeat CPU  2 instructions:  105000000 cycles:  398220617 heartbeat IPC: 0.14284 cumulative IPC: 0.14386 (Simulation time: 0 hr 13 min 33 sec) 
Heartbeat CPU  3 instructions:  104000000 cycles:  398445889 heartbeat IPC: 0.13754 cumulative IPC: 0.14272 (Simulation time: 0 hr 13 min 33 sec) 
Heartbeat CPU  1 instructions:  107000003 cycles:  398950178 heartbeat IPC: 0.14808 cumulative IPC: 0.14755 (Simulation time: 0 hr 13 min 34 sec) 
Heartbeat CPU  0 instructions:  111000001 cycles:  401979757 heartbeat IPC: 0.18624 cumulative IPC: 0.15877 (Simulation time: 0 hr 13 min 38 sec) 
Heartbeat CPU  2 instructions:  106000001 cycles:  405261811 heartbeat IPC: 0.14202 cumulative IPC: 0.14383 (Simulation time: 0 hr 13 min 42 sec) 
Heartbeat CPU  1 instructions:  108000000 cycles:  405503973 heartbeat IPC: 0.15258 cumulative IPC: 0.14764 (Simulation time: 0 hr 13 min 43 sec) 
Heartbeat CPU  3 instructions:  105000001 cycles:  405742163 heartbeat IPC: 0.13706 cumulative IPC: 0.14261 (Simulation time: 0 hr 13 min 43 sec) 
Heartbeat CPU  0 instructions:  112000000 cycles:  407940680 heartbeat IPC: 0.16776 cumulative IPC: 0.15891 (Simulation time: 0 hr 13 min 46 sec) 
Heartbeat CPU  1 instructions:  109000000 cycles:  411989235 heartbeat IPC: 0.15420 cumulative IPC: 0.14775 (Simulation time: 0 hr 13 min 51 sec) 
Heartbeat CPU  2 instructions:  107000002 cycles:  412330490 heartbeat IPC: 0.14147 cumulative IPC: 0.14378 (Simulation time: 0 hr 13 min 52 sec) 
Heartbeat CPU  3 instructions:  106000003 cycles:  413030720 heartbeat IPC: 0.13720 cumulative IPC: 0.14251 (Simulation time: 0 hr 13 min 53 sec) 
Heartbeat CPU  0 instructions:  113000003 cycles:  413917366 heartbeat IPC: 0.16732 cumulative IPC: 0.15903 (Simulation time: 0 hr 13 min 54 sec) 
Heartbeat CPU  1 instructions:  110000003 cycles:  418476218 heartbeat IPC: 0.15416 cumulative IPC: 0.14785 (Simulation time: 0 hr 14 min 0 sec) 
Heartbeat CPU  2 instructions:  108000000 cycles:  419462502 heartbeat IPC: 0.14021 cumulative IPC: 0.14372 (Simulation time: 0 hr 14 min 2 sec) 
Heartbeat CPU  0 instructions:  114000000 cycles:  419702912 heartbeat IPC: 0.17284 cumulative IPC: 0.15923 (Simulation time: 0 hr 14 min 2 sec) 
Heartbeat CPU  3 instructions:  107000001 cycles:  420238036 heartbeat IPC: 0.13875 cumulative IPC: 0.14244 (Simulation time: 0 hr 14 min 3 sec) 
Heartbeat CPU  1 instructions:  111000002 cycles:  424964413 heartbeat IPC: 0.15413 cumulative IPC: 0.14795 (Simulation time: 0 hr 14 min 9 sec) 
Heartbeat CPU  0 instructions:  115000002 cycles:  425107792 heartbeat IPC: 0.18502 cumulative IPC: 0.15958 (Simulation time: 0 hr 14 min 10 sec) 
Heartbeat CPU  2 instructions:  109000001 cycles:  426535421 heartbeat IPC: 0.14138 cumulative IPC: 0.14368 (Simulation time: 0 hr 14 min 12 sec) 
Heartbeat CPU  3 instructions:  108000000 cycles:  427445110 heartbeat IPC: 0.13875 cumulative IPC: 0.14238 (Simulation time: 0 hr 14 min 13 sec) 
Heartbeat CPU  0 instructions:  116000000 cycles:  431292870 heartbeat IPC: 0.16168 cumulative IPC: 0.15961 (Simulation time: 0 hr 14 min 18 sec) 
Heartbeat CPU  1 instructions:  112000000 cycles:  431508905 heartbeat IPC: 0.15280 cumulative IPC: 0.14803 (Simulation time: 0 hr 14 min 18 sec) 
Heartbeat CPU  2 instructions:  110000003 cycles:  433690236 heartbeat IPC: 0.13977 cumulative IPC: 0.14361 (Simulation time: 0 hr 14 min 21 sec) 
Heartbeat CPU  3 instructions:  109000000 cycles:  434641883 heartbeat IPC: 0.13895 cumulative IPC: 0.14232 (Simulation time: 0 hr 14 min 23 sec) 
Heartbeat CPU  1 instructions:  113000002 cycles:  438060506 heartbeat IPC: 0.15263 cumulative IPC: 0.14810 (Simulation time: 0 hr 14 min 27 sec) 
Heartbeat CPU  0 instructions:  117000003 cycles:  438631867 heartbeat IPC: 0.13626 cumulative IPC: 0.15920 (Simulation time: 0 hr 14 min 28 sec) 
Heartbeat CPU  2 instructions:  111000000 cycles:  440785075 heartbeat IPC: 0.14095 cumulative IPC: 0.14357 (Simulation time: 0 hr 14 min 31 sec) 
Heartbeat CPU  3 instructions:  110000003 cycles:  441855615 heartbeat IPC: 0.13862 cumulative IPC: 0.14226 (Simulation time: 0 hr 14 min 32 sec) 
Heartbeat CPU  1 instructions:  114000000 cycles:  444576626 heartbeat IPC: 0.15347 cumulative IPC: 0.14818 (Simulation time: 0 hr 14 min 36 sec) 
Heartbeat CPU  0 instructions:  118000001 cycles:  446386526 heartbeat IPC: 0.12895 cumulative IPC: 0.15865 (Simulation time: 0 hr 14 min 38 sec) 
Heartbeat CPU  2 instructions:  112000000 cycles:  447816099 heartbeat IPC: 0.14223 cumulative IPC: 0.14354 (Simulation time: 0 hr 14 min 40 sec) 
Heartbeat CPU  3 instructions:  111000001 cycles:  449058332 heartbeat IPC: 0.13884 cumulative IPC: 0.14220 (Simulation time: 0 hr 14 min 42 sec) 
Heartbeat CPU  1 instructions:  115000002 cycles:  451091319 heartbeat IPC: 0.15350 cumulative IPC: 0.14826 (Simulation time: 0 hr 14 min 44 sec) 
Heartbeat CPU  0 instructions:  119000001 cycles:  454165926 heartbeat IPC: 0.12854 cumulative IPC: 0.15811 (Simulation time: 0 hr 14 min 48 sec) 
Heartbeat CPU  2 instructions:  113000001 cycles:  454995092 heartbeat IPC: 0.13930 cumulative IPC: 0.14347 (Simulation time: 0 hr 14 min 49 sec) 
Heartbeat CPU  3 instructions:  112000000 cycles:  456258145 heartbeat IPC: 0.13889 cumulative IPC: 0.14214 (Simulation time: 0 hr 14 min 51 sec) 
Heartbeat CPU  1 instructions:  116000000 cycles:  457657027 heartbeat IPC: 0.15231 cumulative IPC: 0.14832 (Simulation time: 0 hr 14 min 53 sec) 
Heartbeat CPU  2 instructions:  114000001 cycles:  462041996 heartbeat IPC: 0.14191 cumulative IPC: 0.14345 (Simulation time: 0 hr 14 min 59 sec) 
Heartbeat CPU  0 instructions:  120000000 cycles:  462046428 heartbeat IPC: 0.12690 cumulative IPC: 0.15755 (Simulation time: 0 hr 14 min 59 sec) 
Heartbeat CPU  3 instructions:  113000003 cycles:  463459755 heartbeat IPC: 0.13886 cumulative IPC: 0.14209 (Simulation time: 0 hr 15 min 1 sec) 
Heartbeat CPU  1 instructions:  117000001 cycles:  464143525 heartbeat IPC: 0.15417 cumulative IPC: 0.14841 (Simulation time: 0 hr 15 min 1 sec) 
Heartbeat CPU  2 instructions:  115000001 cycles:  469233360 heartbeat IPC: 0.13906 cumulative IPC: 0.14338 (Simulation time: 0 hr 15 min 8 sec) 
Heartbeat CPU  0 instructions:  121000003 cycles:  469752463 heartbeat IPC: 0.12977 cumulative IPC: 0.15708 (Simulation time: 0 hr 15 min 9 sec) 
Heartbeat CPU  3 instructions:  114000000 cycles:  470659087 heartbeat IPC: 0.13890 cumulative IPC: 0.14204 (Simulation time: 0 hr 15 min 10 sec) 
Heartbeat CPU  1 instructions:  118000003 cycles:  470663164 heartbeat IPC: 0.15338 cumulative IPC: 0.14848 (Simulation time: 0 hr 15 min 10 sec) 
Heartbeat CPU  2 instructions:  116000000 cycles:  476355647 heartbeat IPC: 0.14040 cumulative IPC: 0.14333 (Simulation time: 0 hr 15 min 18 sec) 
Heartbeat CPU  0 instructions:  122000002 cycles:  476719931 heartbeat IPC: 0.14352 cumulative IPC: 0.15687 (Simulation time: 0 hr 15 min 18 sec) 
Heartbeat CPU  1 instructions:  119000002 cycles:  477198510 heartbeat IPC: 0.15301 cumulative IPC: 0.14855 (Simulation time: 0 hr 15 min 19 sec) 
Heartbeat CPU  3 instructions:  115000003 cycles:  477833849 heartbeat IPC: 0.13938 cumulative IPC: 0.14200 (Simulation time: 0 hr 15 min 20 sec) 
Heartbeat CPU  2 instructions:  117000000 cycles:  482835525 heartbeat IPC: 0.15432 cumulative IPC: 0.14349 (Simulation time: 0 hr 15 min 28 sec) 
Heartbeat CPU  0 instructions:  123000002 cycles:  483702386 heartbeat IPC: 0.14322 cumulative IPC: 0.15666 (Simulation time: 0 hr 15 min 29 sec) 
Heartbeat CPU  1 instructions:  120000000 cycles:  483765191 heartbeat IPC: 0.15228 cumulative IPC: 0.14860 (Simulation time: 0 hr 15 min 30 sec) 
Heartbeat CPU  3 instructions:  116000000 cycles:  485041382 heartbeat IPC: 0.13874 cumulative IPC: 0.14195 (Simulation time: 0 hr 15 min 32 sec) 
Heartbeat CPU  2 instructions:  118000003 cycles:  488185595 heartbeat IPC: 0.18691 cumulative IPC: 0.14398 (Simulation time: 0 hr 15 min 37 sec) 
Heartbeat CPU  1 instructions:  121000002 cycles:  490332903 heartbeat IPC: 0.15226 cumulative IPC: 0.14865 (Simulation time: 0 hr 15 min 41 sec) 
Heartbeat CPU  0 instructions:  124000000 cycles:  490710070 heartbeat IPC: 0.14270 cumulative IPC: 0.15646 (Simulation time: 0 hr 15 min 42 sec) 
Heartbeat CPU  3 instructions:  117000000 cycles:  492281151 heartbeat IPC: 0.13813 cumulative IPC: 0.14189 (Simulation time: 0 hr 15 min 44 sec) 
Heartbeat CPU  2 instructions:  119000002 cycles:  493219486 heartbeat IPC: 0.19865 cumulative IPC: 0.14456 (Simulation time: 0 hr 15 min 46 sec) 
Heartbeat CPU  1 instructions:  122000003 cycles:  496936982 heartbeat IPC: 0.15142 cumulative IPC: 0.14869 (Simulation time: 0 hr 15 min 52 sec) 
Heartbeat CPU  0 instructions:  125000000 cycles:  497674264 heartbeat IPC: 0.14359 cumulative IPC: 0.15627 (Simulation time: 0 hr 15 min 54 sec) 
Heartbeat CPU  2 instructions:  120000000 cycles:  499001675 heartbeat IPC: 0.17294 cumulative IPC: 0.14491 (Simulation time: 0 hr 15 min 56 sec) 
Heartbeat CPU  3 instructions:  118000000 cycles:  499523395 heartbeat IPC: 0.13808 cumulative IPC: 0.14183 (Simulation time: 0 hr 15 min 57 sec) 
Heartbeat CPU  1 instructions:  123000003 cycles:  503473681 heartbeat IPC: 0.15298 cumulative IPC: 0.14875 (Simulation time: 0 hr 16 min 2 sec) 
Heartbeat CPU  0 instructions:  126000001 cycles:  504762338 heartbeat IPC: 0.14108 cumulative IPC: 0.15605 (Simulation time: 0 hr 16 min 4 sec) 
Heartbeat CPU  3 instructions:  119000002 cycles:  506790728 heartbeat IPC: 0.13760 cumulative IPC: 0.14177 (Simulation time: 0 hr 16 min 7 sec) 
Heartbeat CPU  2 instructions:  121000003 cycles:  506792919 heartbeat IPC: 0.12835 cumulative IPC: 0.14464 (Simulation time: 0 hr 16 min 7 sec) 
Heartbeat CPU  1 instructions:  124000000 cycles:  510023602 heartbeat IPC: 0.15267 cumulative IPC: 0.14880 (Simulation time: 0 hr 16 min 11 sec) 
Heartbeat CPU  0 instructions:  127000001 cycles:  511765273 heartbeat IPC: 0.14280 cumulative IPC: 0.15586 (Simulation time: 0 hr 16 min 14 sec) 
Heartbeat CPU  2 instructions:  122000002 cycles:  513924996 heartbeat IPC: 0.14021 cumulative IPC: 0.14458 (Simulation time: 0 hr 16 min 16 sec) 
Heartbeat CPU  3 instructions:  120000000 cycles:  514097130 heartbeat IPC: 0.13687 cumulative IPC: 0.14170 (Simulation time: 0 hr 16 min 17 sec) 
Heartbeat CPU  1 instructions:  125000001 cycles:  516566154 heartbeat IPC: 0.15285 cumulative IPC: 0.14885 (Simulation time: 0 hr 16 min 20 sec) 
Heartbeat CPU  0 instructions:  128000000 cycles:  518752072 heartbeat IPC: 0.14313 cumulative IPC: 0.15568 (Simulation time: 0 hr 16 min 23 sec) 
Heartbeat CPU  2 instructions:  123000002 cycles:  520839694 heartbeat IPC: 0.14462 cumulative IPC: 0.14458 (Simulation time: 0 hr 16 min 26 sec) 
Heartbeat CPU  3 instructions:  121000003 cycles:  521382242 heartbeat IPC: 0.13727 cumulative IPC: 0.14163 (Simulation time: 0 hr 16 min 27 sec) 
Heartbeat CPU  1 instructions:  126000001 cycles:  523104986 heartbeat IPC: 0.15293 cumulative IPC: 0.14890 (Simulation time: 0 hr 16 min 29 sec) 
Heartbeat CPU  0 instructions:  129000003 cycles:  525793824 heartbeat IPC: 0.14201 cumulative IPC: 0.15549 (Simulation time: 0 hr 16 min 32 sec) 
Heartbeat CPU  2 instructions:  124000000 cycles:  527898654 heartbeat IPC: 0.14166 cumulative IPC: 0.14454 (Simulation time: 0 hr 16 min 35 sec) 
Heartbeat CPU  3 instructions:  122000000 cycles:  528656853 heartbeat IPC: 0.13746 cumulative IPC: 0.14157 (Simulation time: 0 hr 16 min 36 sec) 
Heartbeat CPU  1 instructions:  127000003 cycles:  529651426 heartbeat IPC: 0.15276 cumulative IPC: 0.14895 (Simulation time: 0 hr 16 min 38 sec) 
Heartbeat CPU  0 instructions:  130000003 cycles:  532754212 heartbeat IPC: 0.14367 cumulative IPC: 0.15533 (Simulation time: 0 hr 16 min 42 sec) 
Heartbeat CPU  2 instructions:  125000003 cycles:  535001934 heartbeat IPC: 0.14078 cumulative IPC: 0.14449 (Simulation time: 0 hr 16 min 45 sec) 
Heartbeat CPU  3 instructions:  123000000 cycles:  535925957 heartbeat IPC: 0.13757 cumulative IPC: 0.14151 (Simulation time: 0 hr 16 min 46 sec) 
[...]
Core_0_L2C_writeback_miss 1479
Core_0_L2C_prefetch_requested 344907
Core_0_L2C_prefetch_dropped 0
Core_0_L2C_prefetch_issued 344907
Core_0_L2C_prefetch_filled 211679
Core_0_L2C_prefetch_useful 54585
Core_0_L2C_prefetch_useless 156080
Core_0_L2C_prefetch_late 2510
Core_0_L2C_average_miss_latency 192.36538

Core_0_L2C_rq_access 724787
Core_0_L2C_rq_forward 0
Core_0_L2C_rq_merged 0
Core_0_L2C_rq_to_cache 724769
Core_0_L2C_rq_full 0

Core_0_L2C_wq_access 361303
Core_0_L2C_wq_forward 18
Core_0_L2C_wq_merged 0
Core_0_L2C_wq_to_cache 361303
Core_0_L2C_wq_full 0

Core_0_L2C_pq_access 344907
Core_0_L2C_pq_forward 0
Core_0_L2C_pq_merged 33
Core_0_L2C_pq_to_cache 344874
Core_0_L2C_pq_full 0

Core_0_L2C_acc_epochs 169822
Core_0_L2C_acc_level_0 120991
Core_0_L2C_acc_level_1 18058
Core_0_L2C_acc_level_2 12548
Core_0_L2C_acc_level_3 4433
Core_0_L2C_acc_level_4 1575
Core_0_L2C_acc_level_5 7498
Core_0_L2C_acc_level_6 1372
Core_0_L2C_acc_level_7 928
Core_0_L2C_acc_level_8 395
Core_0_L2C_acc_level_9 2024

Core_0_LLC_total_access 596070
Core_0_LLC_total_hit 312649
Core_0_LLC_total_miss 283421
Core_0_LLC_loads 201238
Core_0_LLC_load_hit 79295
Core_0_LLC_load_miss 121943
Core_0_LLC_RFOs 56406
Core_0_LLC_RFO_hit 23732
Core_0_LLC_RFO_miss 32674
Core_0_LLC_prefetches 152044
Core_0_LLC_prefetch_hit 57051
Core_0_LLC_prefetch_miss 94993
Core_0_LLC_writebacks 186382
Core_0_LLC_writeback_hit 152571
Core_0_LLC_writeback_miss 33811
Core_0_LLC_prefetch_requested 0
Core_0_LLC_prefetch_dropped 0
Core_0_LLC_prefetch_issued 0
Core_0_LLC_prefetch_filled 1535805
Core_0_LLC_prefetch_useful 66039
Core_0_LLC_prefetch_useless 1435886
Core_0_LLC_prefetch_late 0
Core_0_LLC_average_miss_latency 1389.71707

Core_0_LLC_rq_access 1588166
Core_0_LLC_rq_forward 0
Core_0_LLC_rq_merged 0
Core_0_LLC_rq_to_cache 1588161
Core_0_LLC_rq_full 0

Core_0_LLC_wq_access 1003724
Core_0_LLC_wq_forward 5
Core_0_LLC_wq_merged 0
Core_0_LLC_wq_to_cache 1003724
Core_0_LLC_wq_full 0

Core_0_LLC_pq_access 2140346
Core_0_LLC_pq_forward 0
Core_0_LLC_pq_merged 0
Core_0_LLC_pq_to_cache 2140346
Core_0_LLC_pq_full 0

Core_0_LLC_acc_epochs 1042186
Core_0_LLC_acc_level_0 993610
Core_0_LLC_acc_level_1 23228
Core_0_LLC_acc_level_2 13427
Core_0_LLC_acc_level_3 2139
Core_0_LLC_acc_level_4 419
Core_0_LLC_acc_level_5 7742
Core_0_LLC_acc_level_6 535
Core_0_LLC_acc_level_7 348
Core_0_LLC_acc_level_8 92
Core_0_LLC_acc_level_9 646

Core_0_major_page_fault 0
Core_0_minor_page_fault 5130

Core_1_instructions 150000000
Core_1_cycles 1015974852
Core_1_IPC 0.14764

Core_1_branch_prediction_accuracy 99.62109
Core_1_branch_MPKI 0.81245
Core_1_average_ROB_occupancy_at_mispredict 210.65770

Core_1_L1D_total_access 23043606
Core_1_L1D_total_hit 22639362
Core_1_L1D_total_miss 404244
Core_1_L1D_loads 13913313
Core_1_L1D_load_hit 13555752
Core_1_L1D_load_miss 357561
Core_1_L1D_RFOs 9130293
Core_1_L1D_RFO_hit 9083610
Core_1_L1D_RFO_miss 46683
Core_1_L1D_prefetches 0
Core_1_L1D_prefetch_hit 0
Core_1_L1D_prefetch_miss 0
Core_1_L1D_writebacks 0
Core_1_L1D_writeback_hit 0
Core_1_L1D_writeback_miss 0
Core_1_L1D_prefetch_requested 0
Core_1_L1D_prefetch_dropped 0
Core_1_L1D_prefetch_issued 0
Core_1_L1D_prefetch_filled 0
Core_1_L1D_prefetch_useful 0
Core_1_L1D_prefetch_useless 0
Core_1_L1D_prefetch_late 0
Core_1_L1D_average_miss_latency 134.10736

Core_1_L1D_rq_access 21022918
Core_1_L1D_rq_forward 0
Core_1_L1D_rq_merged 6654446
Core_1_L1D_rq_to_cache 14368207
Core_1_L1D_rq_full 0

Core_1_L1D_wq_access 9618451
Core_1_L1D_wq_forward 265
Core_1_L1D_wq_merged 128214
Core_1_L1D_wq_to_cache 9490237
Core_1_L1D_wq_full 0

Core_1_L1D_pq_access 0
Core_1_L1D_pq_forward 0
Core_1_L1D_pq_merged 0
Core_1_L1D_pq_to_cache 0
Core_1_L1D_pq_full 0

Core_1_L1D_acc_epochs 161265
Core_1_L1D_acc_level_0 161265
Core_1_L1D_acc_level_1 0
Core_1_L1D_acc_level_2 0
Core_1_L1D_acc_level_3 0
Core_1_L1D_acc_level_4 0
Core_1_L1D_acc_level_5 0
Core_1_L1D_acc_level_6 0
Core_1_L1D_acc_level_7 0
Core_1_L1D_acc_level_8 0
Core_1_L1D_acc_level_9 0

Core_1_L1I_total_access 41724911
Core_1_L1I_total_hit 41709712
Core_1_L1I_total_miss 15199
Core_1_L1I_loads 41724911
Core_1_L1I_load_hit 41709712
Core_1_L1I_load_miss 15199
Core_1_L1I_RFOs 0
Core_1_L1I_RFO_hit 0
Core_1_L1I_RFO_miss 0
Core_1_L1I_prefetches 0
Core_1_L1I_prefetch_hit 0
Core_1_L1I_prefetch_miss 0
Core_1_L1I_writebacks 0
Core_1_L1I_writeback_hit 0
Core_1_L1I_writeback_miss 0
Core_1_L1I_prefetch_requested 0
Core_1_L1I_prefetch_dropped 0
Core_1_L1I_prefetch_issued 0
Core_1_L1I_prefetch_filled 0
Core_1_L1I_prefetch_useful 0
Core_1_L1I_prefetch_useless 0
Core_1_L1I_prefetch_late 0
Core_1_L1I_average_miss_latency 162.11284

Core_1_L1I_rq_access 154786133
Core_1_L1I_rq_forward 0
Core_1_L1I_rq_merged 111681720
Core_1_L1I_rq_to_cache 43104413
Core_1_L1I_rq_full 0

Core_1_L1I_wq_access 0
Core_1_L1I_wq_forward 0
Core_1_L1I_wq_merged 0
Core_1_L1I_wq_to_cache 0
Core_1_L1I_wq_full 0

Core_1_L1I_pq_access 0
Core_1_L1I_pq_forward 0
Core_1_L1I_pq_merged 0
Core_1_L1I_pq_to_cache 0
Core_1_L1I_pq_full 0

Core_1_L1I_acc_epochs 161265
Core_1_L1I_acc_level_0 161265
Core_1_L1I_acc_level_1 0
Core_1_L1I_acc_level_2 0
Core_1_L1I_acc_level_3 0
Core_1_L1I_acc_level_4 0
Core_1_L1I_acc_level_5 0
Core_1_L1I_acc_level_6 0
Core_1_L1I_acc_level_7 0
Core_1_L1I_acc_level_8 0
Core_1_L1I_acc_level_9 0

Core_1_L2C_total_access 964460
Core_1_L2C_total_hit 520308
Core_1_L2C_total_miss 444152
Core_1_L2C_loads 372760
Core_1_L2C_load_hit 197692
Core_1_L2C_load_miss 175068
Core_1_L2C_RFOs 46683
Core_1_L2C_RFO_hit 27680
Core_1_L2C_RFO_miss 19003
Core_1_L2C_prefetches 321249
Core_1_L2C_prefetch_hit 71521
Core_1_L2C_prefetch_miss 249728
Core_1_L2C_writebacks 223768
Core_1_L2C_writeback_hit 223415
Core_1_L2C_writeback_miss 353
Core_1_L2C_prefetch_requested 429416
Core_1_L2C_prefetch_dropped 0
Core_1_L2C_prefetch_issued 429416
Core_1_L2C_prefetch_filled 331119
Core_1_L2C_prefetch_useful 183578
Core_1_L2C_prefetch_useless 146401
Core_1_L2C_prefetch_late 645
Core_1_L2C_average_miss_latency 191.02676

Core_1_L2C_rq_access 429492
Core_1_L2C_rq_forward 0
Core_1_L2C_rq_merged 0
Core_1_L2C_rq_to_cache 429492
Core_1_L2C_rq_full 0

Core_1_L2C_wq_access 228426
Core_1_L2C_wq_forward 0
Core_1_L2C_wq_merged 0
Core_1_L2C_wq_to_cache 228426
Core_1_L2C_wq_full 0

Core_1_L2C_pq_access 429416
Core_1_L2C_pq_forward 0
Core_1_L2C_pq_merged 25
Core_1_L2C_pq_to_cache 429391
Core_1_L2C_pq_full 0

Core_1_L2C_acc_epochs 161265
Core_1_L2C_acc_level_0 38305
Core_1_L2C_acc_level_1 29290
Core_1_L2C_acc_level_2 23834
Core_1_L2C_acc_level_3 15281
Core_1_L2C_acc_level_4 10223
Core_1_L2C_acc_level_5 13638
Core_1_L2C_acc_level_6 6341
Core_1_L2C_acc_level_7 6046
Core_1_L2C_acc_level_8 4380
Core_1_L2C_acc_level_9 13927

Core_1_LLC_total_access 615368
Core_1_LLC_total_hit 274750
Core_1_LLC_total_miss 340618
Core_1_LLC_loads 174553
Core_1_LLC_load_hit 71817
Core_1_LLC_load_miss 102736
Core_1_LLC_RFOs 18928
Core_1_LLC_RFO_hit 9486
Core_1_LLC_RFO_miss 9442
Core_1_LLC_prefetches 250317
Core_1_LLC_prefetch_hit 84985
Core_1_LLC_prefetch_miss 165332
Core_1_LLC_writebacks 171570
Core_1_LLC_writeback_hit 108462
Core_1_LLC_writeback_miss 63108
Core_1_LLC_prefetch_requested 0
Core_1_LLC_prefetch_dropped 0
Core_1_LLC_prefetch_issued 0
Core_1_LLC_prefetch_filled 1535805
Core_1_LLC_prefetch_useful 66039
Core_1_LLC_prefetch_useless 1435886
Core_1_LLC_prefetch_late 0
Core_1_LLC_average_miss_latency 1156.35404

Core_1_LLC_rq_access 1588166
Core_1_LLC_rq_forward 0
Core_1_LLC_rq_merged 0
Core_1_LLC_rq_to_cache 1588161
Core_1_LLC_rq_full 0

Core_1_LLC_wq_access 1003724
Core_1_LLC_wq_forward 5
Core_1_LLC_wq_merged 0
Core_1_LLC_wq_to_cache 1003724
Core_1_LLC_wq_full 0

Core_1_LLC_pq_access 2140346
Core_1_LLC_pq_forward 0
Core_1_LLC_pq_merged 0
Core_1_LLC_pq_to_cache 2140346
Core_1_LLC_pq_full 0

Core_1_LLC_acc_epochs 1042186
Core_1_LLC_acc_level_0 993610
Core_1_LLC_acc_level_1 23228
Core_1_LLC_acc_level_2 13427
Core_1_LLC_acc_level_3 2139
Core_1_LLC_acc_level_4 419
Core_1_LLC_acc_level_5 7742
Core_1_LLC_acc_level_6 535
Core_1_LLC_acc_level_7 348
Core_1_LLC_acc_level_8 92
Core_1_LLC_acc_level_9 646

Core_1_major_page_fault 0
Core_1_minor_page_fault 2387

Core_2_instructions 150000001
Core_2_cycles 1040479999
Core_2_IPC 0.14416

Core_2_branch_prediction_accuracy 98.97686
Core_2_branch_MPKI 2.09550
Core_2_average_ROB_occupancy_at_mispredict 175.62670

Core_2_L1D_total_access 24325559
Core_2_L1D_total_hit 23157958
Core_2_L1D_total_miss 1167601
Core_2_L1D_loads 14073826
Core_2_L1D_load_hit 13034809
Core_2_L1D_load_miss 1039017
Core_2_L1D_RFOs 10251733
Core_2_L1D_RFO_hit 10123149
Core_2_L1D_RFO_miss 128584
Core_2_L1D_prefetches 0
Core_2_L1D_prefetch_hit 0
Core_2_L1D_prefetch_miss 0
Core_2_L1D_writebacks 0
Core_2_L1D_writeback_hit 0
Core_2_L1D_writeback_miss 0
Core_2_L1D_prefetch_requested 0
Core_2_L1D_prefetch_dropped 0
Core_2_L1D_prefetch_issued 0
Core_2_L1D_prefetch_filled 0
Core_2_L1D_prefetch_useful 0
Core_2_L1D_prefetch_useless 0
Core_2_L1D_prefetch_late 0
Core_2_L1D_average_miss_latency 167.39587

Core_2_L1D_rq_access 20685444
Core_2_L1D_rq_forward 0
Core_2_L1D_rq_merged 6479513
Core_2_L1D_rq_to_cache 14204651
Core_2_L1D_rq_full 0

Core_2_L1D_wq_access 10887246
Core_2_L1D_wq_forward 1280
Core_2_L1D_wq_merged 214952
Core_2_L1D_wq_to_cache 10672294
Core_2_L1D_wq_full 11562

Core_2_L1D_pq_access 0
Core_2_L1D_pq_forward 0
Core_2_L1D_pq_merged 0
Core_2_L1D_pq_to_cache 0
Core_2_L1D_pq_full 0

Core_2_L1D_acc_epochs 197817
Core_2_L1D_acc_level_0 197817
Core_2_L1D_acc_level_1 0
Core_2_L1D_acc_level_2 0
Core_2_L1D_acc_level_3 0
Core_2_L1D_acc_level_4 0
Core_2_L1D_acc_level_5 0
Core_2_L1D_acc_level_6 0
Core_2_L1D_acc_level_7 0
Core_2_L1D_acc_level_8 0
Core_2_L1D_acc_level_9 0

Core_2_L1I_total_access 37012789
Core_2_L1I_total_hit 36623727
Core_2_L1I_total_miss 389062
Core_2_L1I_loads 37012789
Core_2_L1I_load_hit 36623727
Core_2_L1I_load_miss 389062
Core_2_L1I_RFOs 0
Core_2_L1I_RFO_hit 0
Core_2_L1I_RFO_miss 0
Core_2_L1I_prefetches 0
Core_2_L1I_prefetch_hit 0
Core_2_L1I_prefetch_miss 0
Core_2_L1I_writebacks 0
Core_2_L1I_writeback_hit 0
Core_2_L1I_writeback_miss 0
Core_2_L1I_prefetch_requested 0
Core_2_L1I_prefetch_dropped 0
Core_2_L1I_prefetch_issued 0
Core_2_L1I_prefetch_filled 0
Core_2_L1I_prefetch_useful 0
Core_2_L1I_prefetch_useless 0
Core_2_L1I_prefetch_late 0
Core_2_L1I_average_miss_latency 100.78281

Core_2_L1I_rq_access 150939495
Core_2_L1I_rq_forward 0
Core_2_L1I_rq_merged 113470854
Core_2_L1I_rq_to_cache 37468641
Core_2_L1I_rq_full 0

Core_2_L1I_wq_access 0
Core_2_L1I_wq_forward 0
Core_2_L1I_wq_merged 0
Core_2_L1I_wq_to_cache 0
Core_2_L1I_wq_full 0

Core_2_L1I_pq_access 0
Core_2_L1I_pq_forward 0
Core_2_L1I_pq_merged 0
Core_2_L1I_pq_to_cache 0
Core_2_L1I_pq_full 0

Core_2_L1I_acc_epochs 197817
Core_2_L1I_acc_level_0 197817
Core_2_L1I_acc_level_1 0
Core_2_L1I_acc_level_2 0
Core_2_L1I_acc_level_3 0
Core_2_L1I_acc_level_4 0
Core_2_L1I_acc_level_5 0
Core_2_L1I_acc_level_6 0
Core_2_L1I_acc_level_7 0
Core_2_L1I_acc_level_8 0
Core_2_L1I_acc_level_9 0

Core_2_L2C_total_access 3060316
Core_2_L2C_total_hit 1347298
Core_2_L2C_total_miss 1713018
Core_2_L2C_loads 1428058
Core_2_L2C_load_hit 670733
Core_2_L2C_load_miss 757325
Core_2_L2C_RFOs 128584
Core_2_L2C_RFO_hit 65456
Core_2_L2C_RFO_miss 63128
Core_2_L2C_prefetches 1057952
Core_2_L2C_prefetch_hit 168303
Core_2_L2C_prefetch_miss 889649
Core_2_L2C_writebacks 445722
Core_2_L2C_writeback_hit 442806
Core_2_L2C_writeback_miss 2916
Core_2_L2C_prefetch_requested 1419408
Core_2_L2C_prefetch_dropped 0
Core_2_L2C_prefetch_issued 1419408
Core_2_L2C_prefetch_filled 1142159
Core_2_L2C_prefetch_useful 224406
Core_2_L2C_prefetch_useless 916314
Core_2_L2C_prefetch_late 8726
Core_2_L2C_average_miss_latency 176.97898

Core_2_L2C_rq_access 1562338
Core_2_L2C_rq_forward 0
Core_2_L2C_rq_merged 0
Core_2_L2C_rq_to_cache 1562317
Core_2_L2C_rq_full 0

Core_2_L2C_wq_access 447567
Core_2_L2C_wq_forward 21
Core_2_L2C_wq_merged 0
Core_2_L2C_wq_to_cache 447567
Core_2_L2C_wq_full 0

Core_2_L2C_pq_access 1419408
Core_2_L2C_pq_forward 0
Core_2_L2C_pq_merged 184
Core_2_L2C_pq_to_cache 1419224
Core_2_L2C_pq_full 0

Core_2_L2C_acc_epochs 197817
Core_2_L2C_acc_level_0 103662
Core_2_L2C_acc_level_1 38500
Core_2_L2C_acc_level_2 26794
Core_2_L2C_acc_level_3 11289
Core_2_L2C_acc_level_4 3766
Core_2_L2C_acc_level_5 8595
Core_2_L2C_acc_level_6 1748
Core_2_L2C_acc_level_7 1083
Core_2_L2C_acc_level_8 411
Core_2_L2C_acc_level_9 1969

Core_2_LLC_total_access 2050333
Core_2_LLC_total_hit 638438
Core_2_LLC_total_miss 1411895
Core_2_LLC_loads 749915
Core_2_LLC_load_hit 162269
Core_2_LLC_load_miss 587646
Core_2_LLC_RFOs 62332
Core_2_LLC_RFO_hit 14658
Core_2_LLC_RFO_miss 47674
Core_2_LLC_prefetches 897855
Core_2_LLC_prefetch_hit 196884
Core_2_LLC_prefetch_miss 700971
Core_2_LLC_writebacks 340231
Core_2_LLC_writeback_hit 264627
Core_2_LLC_writeback_miss 75604
Core_2_LLC_prefetch_requested 0
Core_2_LLC_prefetch_dropped 0
Core_2_LLC_prefetch_issued 0
Core_2_LLC_prefetch_filled 1535805
Core_2_LLC_prefetch_useful 66039
Core_2_LLC_prefetch_useless 1435886
Core_2_LLC_prefetch_late 0
Core_2_LLC_average_miss_latency 278.96905

Core_2_LLC_rq_access 1588166
Core_2_LLC_rq_forward 0
Core_2_LLC_rq_merged 0
Core_2_LLC_rq_to_cache 1588161
Core_2_LLC_rq_full 0

Core_2_LLC_wq_access 1003724
Core_2_LLC_wq_forward 5
Core_2_LLC_wq_merged 0
Core_2_LLC_wq_to_cache 1003724
Core_2_LLC_wq_full 0

Core_2_LLC_pq_access 2140346
Core_2_LLC_pq_forward 0
Core_2_LLC_pq_merged 0
Core_2_LLC_pq_to_cache 2140346
Core_2_LLC_pq_full 0

Core_2_LLC_acc_epochs 1042186
Core_2_LLC_acc_level_0 993610
Core_2_LLC_acc_level_1 23228
Core_2_LLC_acc_level_2 13427
Core_2_LLC_acc_level_3 2139
Core_2_LLC_acc_level_4 419
Core_2_LLC_acc_level_5 7742
Core_2_LLC_acc_level_6 535
Core_2_LLC_acc_level_7 348
Core_2_LLC_acc_level_8 92
Core_2_LLC_acc_level_9 646

Core_2_major_page_fault 0
Core_2_minor_page_fault 71899

Core_3_instructions 150000000
Core_3_cycles 1047119354
Core_3_IPC 0.14325

Core_3_branch_prediction_accuracy 99.43225
Core_3_branch_MPKI 1.23695
Core_3_average_ROB_occupancy_at_mispredict 188.12552

Core_3_L1D_total_access 22994346
Core_3_L1D_total_hit 22435384
Core_3_L1D_total_miss 558962
Core_3_L1D_loads 13977866
Core_3_L1D_load_hit 13447193
Core_3_L1D_load_miss 530673
Core_3_L1D_RFOs 9016480
Core_3_L1D_RFO_hit 8988191
Core_3_L1D_RFO_miss 28289
Core_3_L1D_prefetches 0
Core_3_L1D_prefetch_hit 0
Core_3_L1D_prefetch_miss 0
Core_3_L1D_writebacks 0
Core_3_L1D_writeback_hit 0
Core_3_L1D_writeback_miss 0
Core_3_L1D_prefetch_requested 0
Core_3_L1D_prefetch_dropped 0
Core_3_L1D_prefetch_issued 0
Core_3_L1D_prefetch_filled 0
Core_3_L1D_prefetch_useful 0
Core_3_L1D_prefetch_useless 0
Core_3_L1D_prefetch_late 0
Core_3_L1D_average_miss_latency 148.70369

Core_3_L1D_rq_access 20592058
Core_3_L1D_rq_forward 0
Core_3_L1D_rq_merged 6560629
Core_3_L1D_rq_to_cache 14031332
Core_3_L1D_rq_full 0

Core_3_L1D_wq_access 9223727
Core_3_L1D_wq_forward 97
Core_3_L1D_wq_merged 168519
Core_3_L1D_wq_to_cache 9055208
Core_3_L1D_wq_full 0

Core_3_L1D_pq_access 0
Core_3_L1D_pq_forward 0
Core_3_L1D_pq_merged 0
Core_3_L1D_pq_to_cache 0
Core_3_L1D_pq_full 0

Core_3_L1D_acc_epochs 162785
Core_3_L1D_acc_level_0 162785
Core_3_L1D_acc_level_1 0
Core_3_L1D_acc_level_2 0
Core_3_L1D_acc_level_3 0
Core_3_L1D_acc_level_4 0
Core_3_L1D_acc_level_5 0
Core_3_L1D_acc_level_6 0
Core_3_L1D_acc_level_7 0
Core_3_L1D_acc_level_8 0
Core_3_L1D_acc_level_9 0

Core_3_L1I_total_access 40672209
Core_3_L1I_total_hit 40669897
Core_3_L1I_total_miss 2312
Core_3_L1I_loads 40672209
Core_3_L1I_load_hit 40669897
Core_3_L1I_load_miss 2312
Core_3_L1I_RFOs 0
Core_3_L1I_RFO_hit 0
Core_3_L1I_RFO_miss 0
Core_3_L1I_prefetches 0
Core_3_L1I_prefetch_hit 0
Core_3_L1I_prefetch_miss 0
Core_3_L1I_writebacks 0
Core_3_L1I_writeback_hit 0
Core_3_L1I_writeback_miss 0
Core_3_L1I_prefetch_requested 0
Core_3_L1I_prefetch_dropped 0
Core_3_L1I_prefetch_issued 0
Core_3_L1I_prefetch_filled 0
Core_3_L1I_prefetch_useful 0
Core_3_L1I_prefetch_useless 0
Core_3_L1I_prefetch_late 0
Core_3_L1I_average_miss_latency 211.32699

Core_3_L1I_rq_access 149999988
Core_3_L1I_rq_forward 0
Core_3_L1I_rq_merged 109326604
Core_3_L1I_rq_to_cache 40673384
Core_3_L1I_rq_full 0

Core_3_L1I_wq_access 0
Core_3_L1I_wq_forward 0
Core_3_L1I_wq_merged 0
Core_3_L1I_wq_to_cache 0
Core_3_L1I_wq_full 0

Core_3_L1I_pq_access 0
Core_3_L1I_pq_forward 0
Core_3_L1I_pq_merged 0
Core_3_L1I_pq_to_cache 0
Core_3_L1I_pq_full 0

Core_3_L1I_acc_epochs 162785
Core_3_L1I_acc_level_0 162785
Core_3_L1I_acc_level_1 0
Core_3_L1I_acc_level_2 0
Core_3_L1I_acc_level_3 0
Core_3_L1I_acc_level_4 0
Core_3_L1I_acc_level_5 0
Core_3_L1I_acc_level_6 0
Core_3_L1I_acc_level_7 0
Core_3_L1I_acc_level_8 0
Core_3_L1I_acc_level_9 0

Core_3_L2C_total_access 1297797
Core_3_L2C_total_hit 666400
Core_3_L2C_total_miss 631397
Core_3_L2C_loads 532982
Core_3_L2C_load_hit 244837
Core_3_L2C_load_miss 288145
Core_3_L2C_RFOs 28285
Core_3_L2C_RFO_hit 15682
Core_3_L2C_RFO_miss 12603
Core_3_L2C_prefetches 415846
Core_3_L2C_prefetch_hit 87111
Core_3_L2C_prefetch_miss 328735
Core_3_L2C_writebacks 320684
Core_3_L2C_writeback_hit 318770
Core_3_L2C_writeback_miss 1914
Core_3_L2C_prefetch_requested 570989
Core_3_L2C_prefetch_dropped 0
Core_3_L2C_prefetch_issued 570989
Core_3_L2C_prefetch_filled 441780
Core_3_L2C_prefetch_useful 250396
Core_3_L2C_prefetch_useless 190529
Core_3_L2C_prefetch_late 1728
Core_3_L2C_average_miss_latency 174.65026

Core_3_L2C_rq_access 561274
Core_3_L2C_rq_forward 0
Core_3_L2C_rq_merged 0
Core_3_L2C_rq_to_cache 561267
Core_3_L2C_rq_full 0

Core_3_L2C_wq_access 320684
Core_3_L2C_wq_forward 7
Core_3_L2C_wq_merged 0
Core_3_L2C_wq_to_cache 320684
Core_3_L2C_wq_full 0

Core_3_L2C_pq_access 570989
Core_3_L2C_pq_forward 0
Core_3_L2C_pq_merged 42
Core_3_L2C_pq_to_cache 570947
Core_3_L2C_pq_full 0

Core_3_L2C_acc_epochs 162785
Core_3_L2C_acc_level_0 24673
Core_3_L2C_acc_level_1 28972
Core_3_L2C_acc_level_2 24409
Core_3_L2C_acc_level_3 17551
Core_3_L2C_acc_level_4 13127
Core_3_L2C_acc_level_5 16407
Core_3_L2C_acc_level_6 9073
Core_3_L2C_acc_level_7 7850
Core_3_L2C_acc_level_8 5446
Core_3_L2C_acc_level_9 15277

Core_3_LLC_total_access 915581
Core_3_LLC_total_hit 506361
Core_3_LLC_total_miss 409220
Core_3_LLC_loads 286616
Core_3_LLC_load_hit 136295
Core_3_LLC_load_miss 150321
Core_3_LLC_RFOs 12513
Core_3_LLC_RFO_hit 6288
Core_3_LLC_RFO_miss 6225
Core_3_LLC_prefetches 330354
Core_3_LLC_prefetch_hit 132965
Core_3_LLC_prefetch_miss 197389
Core_3_LLC_writebacks 286098
Core_3_LLC_writeback_hit 230813
Core_3_LLC_writeback_miss 55285
Core_3_LLC_prefetch_requested 0
Core_3_LLC_prefetch_dropped 0
Core_3_LLC_prefetch_issued 0
Core_3_LLC_prefetch_filled 1535805
Core_3_LLC_prefetch_useful 66039
Core_3_LLC_prefetch_useless 1435886
Core_3_LLC_prefetch_late 0
Core_3_LLC_average_miss_latency 962.50184

Core_3_LLC_rq_access 1588166
Core_3_LLC_rq_forward 0
Core_3_LLC_rq_merged 0
Core_3_LLC_rq_to_cache 1588161
Core_3_LLC_rq_full 0

Core_3_LLC_wq_access 1003724
Core_3_LLC_wq_forward 5
Core_3_LLC_wq_merged 0
Core_3_LLC_wq_to_cache 1003724
Core_3_LLC_wq_full 0

Core_3_LLC_pq_access 2140346
Core_3_LLC_pq_forward 0
Core_3_LLC_pq_merged 0
Core_3_LLC_pq_to_cache 2140346
Core_3_LLC_pq_full 0

Core_3_LLC_acc_epochs 1042186
Core_3_LLC_acc_level_0 993610
Core_3_LLC_acc_level_1 23228
Core_3_LLC_acc_level_2 13427
Core_3_LLC_acc_level_3 2139
Core_3_LLC_acc_level_4 419
Core_3_LLC_acc_level_5 7742
Core_3_LLC_acc_level_6 535
Core_3_LLC_acc_level_7 348
Core_3_LLC_acc_level_8 92
Core_3_LLC_acc_level_9 646

Core_3_major_page_fault 0
Core_3_minor_page_fault 3508

Channel_0_RQ_row_buffer_hit 232371
Channel_0_RQ_row_buffer_miss 900474
Channel_0_WQ_row_buffer_hit 28359
Channel_0_WQ_row_buffer_miss 304473
Channel_0_WQ_full 0
Channel_0_dbus_congested 285307

Channel_1_RQ_row_buffer_hit 223189
Channel_1_RQ_row_buffer_miss 895134
Channel_1_WQ_row_buffer_hit 28226
Channel_1_WQ_row_buffer_miss 304977
Channel_1_WQ_full 0
Channel_1_dbus_congested 277838

avg_congested_cycle 8

DRAM_bw_pochs 4168742
DRAM_bw_level_0 4109271
DRAM_bw_level_1 57658
DRAM_bw_level_2 1562
DRAM_bw_level_3 251
