*************************************************
   ChampSim Multicore Out-of-Order Simulator
   Last compiled: Mar 31 2025 20:14:32
*************************************************
parsing config file: /data3/config/bingo.ini

trace_0 /data3/CLOUD9/traces/cloud9_phase1_core0.trace.xz
trace_1 /data3/CLOUD9/traces/cloud9_phase1_core1.trace.xz
trace_2 /data3/CLOUD9/traces/cloud9_phase1_core2.trace.xz
trace_3 /data3/CLOUD9/traces/cloud9_phase1_core3.trace.xz
adding L2C_PREFETCHER: Bingo
adding L2C_PREFETCHER: Bingo
adding L2C_PREFETCHER: Bingo
adding L2C_PREFETCHER: Bingo
Initialize SHIP state
warmup_instructions 50000000
simulation_instructions 150000000
champsim_seed 7338
measure_ipc 0
measure_ipc_epoch 1000
measure_dram_bw 1
measure_dram_bw_epoch 256
measure_cache_acc 1
measure_cache_acc_epoch 1024
l1d_perfect 0
l2c_perfect 0
llc_perfect 0
l1d_semi_perfect 0
l2c_semi_perfect 0
llc_semi_perfect 0
semi_perfect_cache_page_buffer_size 64

num_cpus 4
cpu_freq 4000
dram_io_freq 2400
page_size 4096
block_size 64
max_read_per_cycle 8
max_fill_per_cycle 1
dram_channels 2
log2_dram_channels 1
dram_ranks 1
dram_banks 8
dram_rows 65536
dram_columns 128
dram_row_size 8
dram_size 8192
dram_pages 2097152

fetch_width 6
decode_width 6
exec_width 4
lq_width 2
sq_width 2
retire_width 4
scheduler_size 128
branch_mispredict_penalty 20
rob_size 256
lq_size 72
sq_size 56
num_instr_destinations_sparc 4
num_instr_destinations 2
num_instr_sources 4

itlb_set 16
itlb_way 8
itlb_rq_size 16
itlb_wq_size 16
itlb_pq_size 0
itlb_mshr_size 8
itlb_latency 1

dtlb_set 16
dtlb_way 4
dtlb_rq_size 16
dtlb_wq_size 16
dtlb_pq_size 0
dtlb_mshr_size 8
dtlb_latency 1

stlb_set 128
stlb_way 12
stlb_rq_size 32
stlb_wq_size 32
stlb_pq_size 0
stlb_mshr_size 16
stlb_latency 8

l1i_size 32
l1i_set 64
l1i_way 8
l1i_rq_size 64
l1i_wq_size 64
l1i_pq_size 8
l1i_mshr_size 8
l1i_latency 1

l1d_size 32
l1d_set 64
l1d_way 8
l1d_rq_size 64
l1d_wq_size 64
l1d_pq_size 8
l1d_mshr_size 16
l1d_latency 4

l2c_size 256
l2c_set 512
l2c_way 8
l2c_rq_size 32
l2c_wq_size 32
l2c_pq_size 32
l2c_mshr_size 32
l2c_latency 10

llc_size 8192
llc_set 8192
llc_way 16
llc_rq_size 128
llc_wq_size 128
llc_pq_size 128
llc_mshr_size 256
llc_latency 20

dram_channel_width 8
dram_wq_size 64
dram_rq_size 64
tRP 15
tRCD 15
tCAS 12.5
dram_dbus_turn_around_time 30
dram_write_high_wm 56
dram_write_low_wm 48
min_dram_writes_per_switch 16
dram_mtps 2400
dram_dbus_return_time 13

bingo_region_size 2048
bingo_pattern_len 32
bingo_pc_width 16
bingo_min_addr_width 5
bingo_max_addr_width 16
bingo_ft_size 64
bingo_at_size 128
bingo_pht_size 4096
bingo_pht_ways 16
bingo_pf_streamer_size 128
bingo_debug_level 0
bingo_l1d_thresh 1.01
bingo_l2c_thresh 0.8
bingo_llc_thresh 0.05
bingo_pc_address_fill_level L2


Heartbeat CPU  1 instructions:    1000001 cycles:     398191 heartbeat IPC: 2.51136 cumulative IPC: 2.51136 (Simulation time: 0 hr 0 min 5 sec) 
Heartbeat CPU  2 instructions:    1000002 cycles:     412283 heartbeat IPC: 2.42552 cumulative IPC: 2.42552 (Simulation time: 0 hr 0 min 6 sec) 
Heartbeat CPU  3 instructions:    1000000 cycles:     444843 heartbeat IPC: 2.24798 cumulative IPC: 2.24798 (Simulation time: 0 hr 0 min 6 sec) 
Heartbeat CPU  0 instructions:    1000000 cycles:     456109 heartbeat IPC: 2.19246 cumulative IPC: 2.19246 (Simulation time: 0 hr 0 min 6 sec) 
Heartbeat CPU  1 instructions:    2000001 cycles:     786515 heartbeat IPC: 2.57517 cumulative IPC: 2.54286 (Simulation time: 0 hr 0 min 11 sec) 
Heartbeat CPU  2 instructions:    2000002 cycles:     817162 heartbeat IPC: 2.46987 cumulative IPC: 2.44750 (Simulation time: 0 hr 0 min 12 sec) 
Heartbeat CPU  3 instructions:    2000003 cycles:     864230 heartbeat IPC: 2.38444 cumulative IPC: 2.31420 (Simulation time: 0 hr 0 min 13 sec) 
Heartbeat CPU  0 instructions:    2000000 cycles:     912016 heartbeat IPC: 2.19343 cumulative IPC: 2.19294 (Simulation time: 0 hr 0 min 13 sec) 
Heartbeat CPU  1 instructions:    3000002 cycles:    1175072 heartbeat IPC: 2.57363 cumulative IPC: 2.55304 (Simulation time: 0 hr 0 min 17 sec) 
Heartbeat CPU  2 instructions:    3000003 cycles:    1222259 heartbeat IPC: 2.46855 cumulative IPC: 2.45447 (Simulation time: 0 hr 0 min 18 sec) 
Heartbeat CPU  3 instructions:    3000001 cycles:    1293137 heartbeat IPC: 2.33150 cumulative IPC: 2.31994 (Simulation time: 0 hr 0 min 19 sec) 
Heartbeat CPU  0 instructions:    3000000 cycles:    1364503 heartbeat IPC: 2.21001 cumulative IPC: 2.19860 (Simulation time: 0 hr 0 min 20 sec) 
Heartbeat CPU  1 instructions:    4000000 cycles:    1564209 heartbeat IPC: 2.56978 cumulative IPC: 2.55720 (Simulation time: 0 hr 0 min 23 sec) 
Heartbeat CPU  2 instructions:    4000000 cycles:    1626857 heartbeat IPC: 2.47158 cumulative IPC: 2.45873 (Simulation time: 0 hr 0 min 24 sec) 
Heartbeat CPU  3 instructions:    4000000 cycles:    1701941 heartbeat IPC: 2.44616 cumulative IPC: 2.35026 (Simulation time: 0 hr 0 min 26 sec) 
Heartbeat CPU  0 instructions:    4000000 cycles:    1812358 heartbeat IPC: 2.23287 cumulative IPC: 2.20707 (Simulation time: 0 hr 0 min 27 sec) 
Heartbeat CPU  1 instructions:    5000002 cycles:    1954173 heartbeat IPC: 2.56434 cumulative IPC: 2.55863 (Simulation time: 0 hr 0 min 30 sec) 
Heartbeat CPU  2 instructions:    5000002 cycles:    2028630 heartbeat IPC: 2.48897 cumulative IPC: 2.46472 (Simulation time: 0 hr 0 min 31 sec) 
Heartbeat CPU  3 instructions:    5000002 cycles:    2106085 heartbeat IPC: 2.47437 cumulative IPC: 2.37407 (Simulation time: 0 hr 0 min 32 sec) 
Heartbeat CPU  0 instructions:    5000001 cycles:    2258613 heartbeat IPC: 2.24087 cumulative IPC: 2.21375 (Simulation time: 0 hr 0 min 34 sec) 
Heartbeat CPU  1 instructions:    6000003 cycles:    2343172 heartbeat IPC: 2.57070 cumulative IPC: 2.56063 (Simulation time: 0 hr 0 min 36 sec) 
Heartbeat CPU  2 instructions:    6000003 cycles:    2426617 heartbeat IPC: 2.51265 cumulative IPC: 2.47258 (Simulation time: 0 hr 0 min 37 sec) 
Heartbeat CPU  3 instructions:    6000000 cycles:    2574674 heartbeat IPC: 2.13406 cumulative IPC: 2.33039 (Simulation time: 0 hr 0 min 39 sec) 
Heartbeat CPU  0 instructions:    6000001 cycles:    2704572 heartbeat IPC: 2.24236 cumulative IPC: 2.21847 (Simulation time: 0 hr 0 min 41 sec) 
Heartbeat CPU  1 instructions:    7000000 cycles:    2734632 heartbeat IPC: 2.55453 cumulative IPC: 2.55976 (Simulation time: 0 hr 0 min 42 sec) 
Heartbeat CPU  2 instructions:    7000003 cycles:    2831170 heartbeat IPC: 2.47186 cumulative IPC: 2.47248 (Simulation time: 0 hr 0 min 43 sec) 
Heartbeat CPU  3 instructions:    7000001 cycles:    2981520 heartbeat IPC: 2.45793 cumulative IPC: 2.34780 (Simulation time: 0 hr 0 min 46 sec) 
Heartbeat CPU  1 instructions:    8000000 cycles:    3122680 heartbeat IPC: 2.57700 cumulative IPC: 2.56190 (Simulation time: 0 hr 0 min 48 sec) 
Heartbeat CPU  0 instructions:    7000000 cycles:    3179866 heartbeat IPC: 2.10396 cumulative IPC: 2.20135 (Simulation time: 0 hr 0 min 49 sec) 
Heartbeat CPU  2 instructions:    8000000 cycles:    3233663 heartbeat IPC: 2.48451 cumulative IPC: 2.47397 (Simulation time: 0 hr 0 min 50 sec) 
Heartbeat CPU  3 instructions:    8000000 cycles:    3385507 heartbeat IPC: 2.47532 cumulative IPC: 2.36301 (Simulation time: 0 hr 0 min 52 sec) 
Heartbeat CPU  1 instructions:    9000001 cycles:    3510745 heartbeat IPC: 2.57689 cumulative IPC: 2.56356 (Simulation time: 0 hr 0 min 54 sec) 
Heartbeat CPU  2 instructions:    9000000 cycles:    3631071 heartbeat IPC: 2.51631 cumulative IPC: 2.47861 (Simulation time: 0 hr 0 min 56 sec) 
Heartbeat CPU  0 instructions:    8000000 cycles:    3633589 heartbeat IPC: 2.20399 cumulative IPC: 2.20168 (Simulation time: 0 hr 0 min 56 sec) 
Heartbeat CPU  3 instructions:    9000003 cycles:    3790063 heartbeat IPC: 2.47185 cumulative IPC: 2.37463 (Simulation time: 0 hr 0 min 59 sec) 
Heartbeat CPU  1 instructions:   10000002 cycles:    3895731 heartbeat IPC: 2.59750 cumulative IPC: 2.56691 (Simulation time: 0 hr 1 min 1 sec) 
Heartbeat CPU  2 instructions:   10000000 cycles:    4033125 heartbeat IPC: 2.48723 cumulative IPC: 2.47947 (Simulation time: 0 hr 1 min 3 sec) 
Heartbeat CPU  0 instructions:    9000000 cycles:    4078047 heartbeat IPC: 2.24993 cumulative IPC: 2.20694 (Simulation time: 0 hr 1 min 3 sec) 
Heartbeat CPU  3 instructions:   10000001 cycles:    4193993 heartbeat IPC: 2.47567 cumulative IPC: 2.38436 (Simulation time: 0 hr 1 min 5 sec) 
Heartbeat CPU  1 instructions:   11000003 cycles:    4286027 heartbeat IPC: 2.56216 cumulative IPC: 2.56648 (Simulation time: 0 hr 1 min 7 sec) 
Heartbeat CPU  2 instructions:   11000001 cycles:    4433540 heartbeat IPC: 2.49741 cumulative IPC: 2.48109 (Simulation time: 0 hr 1 min 9 sec) 
Heartbeat CPU  0 instructions:   10000002 cycles:    4522794 heartbeat IPC: 2.24847 cumulative IPC: 2.21102 (Simulation time: 0 hr 1 min 11 sec) 
Heartbeat CPU  3 instructions:   11000002 cycles:    4598040 heartbeat IPC: 2.47496 cumulative IPC: 2.39232 (Simulation time: 0 hr 1 min 12 sec) 
Heartbeat CPU  1 instructions:   12000000 cycles:    4675443 heartbeat IPC: 2.56794 cumulative IPC: 2.56660 (Simulation time: 0 hr 1 min 13 sec) 
Heartbeat CPU  2 instructions:   12000000 cycles:    4835978 heartbeat IPC: 2.48485 cumulative IPC: 2.48140 (Simulation time: 0 hr 1 min 16 sec) 
Heartbeat CPU  0 instructions:   11000000 cycles:    4978076 heartbeat IPC: 2.19644 cumulative IPC: 2.20969 (Simulation time: 0 hr 1 min 18 sec) 
Heartbeat CPU  1 instructions:   13000000 cycles:    5065306 heartbeat IPC: 2.56500 cumulative IPC: 2.56648 (Simulation time: 0 hr 1 min 19 sec) 
Heartbeat CPU  3 instructions:   12000000 cycles:    5180605 heartbeat IPC: 1.71654 cumulative IPC: 2.31633 (Simulation time: 0 hr 1 min 21 sec) 
Heartbeat CPU  2 instructions:   13000000 cycles:    5235199 heartbeat IPC: 2.50488 cumulative IPC: 2.48319 (Simulation time: 0 hr 1 min 22 sec) 
Heartbeat CPU  0 instructions:   12000000 cycles:    5407333 heartbeat IPC: 2.32961 cumulative IPC: 2.21921 (Simulation time: 0 hr 1 min 25 sec) 
Heartbeat CPU  1 instructions:   14000003 cycles:    5452616 heartbeat IPC: 2.58192 cumulative IPC: 2.56758 (Simulation time: 0 hr 1 min 26 sec) 
Heartbeat CPU  3 instructions:   13000003 cycles:    5584784 heartbeat IPC: 2.47416 cumulative IPC: 2.32775 (Simulation time: 0 hr 1 min 28 sec) 
Heartbeat CPU  2 instructions:   14000002 cycles:    5633197 heartbeat IPC: 2.51258 cumulative IPC: 2.48527 (Simulation time: 0 hr 1 min 29 sec) 
Heartbeat CPU  0 instructions:   13000002 cycles:    5828365 heartbeat IPC: 2.37512 cumulative IPC: 2.23047 (Simulation time: 0 hr 1 min 32 sec) 
Heartbeat CPU  1 instructions:   15000002 cycles:    5841314 heartbeat IPC: 2.57269 cumulative IPC: 2.56792 (Simulation time: 0 hr 1 min 33 sec) 
Heartbeat CPU  3 instructions:   14000000 cycles:    5989069 heartbeat IPC: 2.47350 cumulative IPC: 2.33759 (Simulation time: 0 hr 1 min 35 sec) 
Heartbeat CPU  2 instructions:   15000003 cycles:    6035926 heartbeat IPC: 2.48306 cumulative IPC: 2.48512 (Simulation time: 0 hr 1 min 36 sec) 
Heartbeat CPU  1 instructions:   16000000 cycles:    6229503 heartbeat IPC: 2.57606 cumulative IPC: 2.56842 (Simulation time: 0 hr 1 min 39 sec) 
Heartbeat CPU  0 instructions:   14000000 cycles:    6257187 heartbeat IPC: 2.33197 cumulative IPC: 2.23743 (Simulation time: 0 hr 1 min 40 sec) 
Heartbeat CPU  3 instructions:   15000000 cycles:    6393177 heartbeat IPC: 2.47459 cumulative IPC: 2.34625 (Simulation time: 0 hr 1 min 42 sec) 
Heartbeat CPU  2 instructions:   16000000 cycles:    6433104 heartbeat IPC: 2.51776 cumulative IPC: 2.48714 (Simulation time: 0 hr 1 min 43 sec) 
Heartbeat CPU  1 instructions:   17000001 cycles:    6618100 heartbeat IPC: 2.57336 cumulative IPC: 2.56871 (Simulation time: 0 hr 1 min 46 sec) 
Heartbeat CPU  0 instructions:   15000003 cycles:    6679343 heartbeat IPC: 2.36880 cumulative IPC: 2.24573 (Simulation time: 0 hr 1 min 47 sec) 
Heartbeat CPU  3 instructions:   16000000 cycles:    6833356 heartbeat IPC: 2.27180 cumulative IPC: 2.34146 (Simulation time: 0 hr 1 min 50 sec) 
Heartbeat CPU  2 instructions:   17000000 cycles:    6837382 heartbeat IPC: 2.47355 cumulative IPC: 2.48633 (Simulation time: 0 hr 1 min 50 sec) 
Heartbeat CPU  1 instructions:   18000002 cycles:    7007263 heartbeat IPC: 2.56962 cumulative IPC: 2.56876 (Simulation time: 0 hr 1 min 53 sec) 
Heartbeat CPU  0 instructions:   16000000 cycles:    7114227 heartbeat IPC: 2.29946 cumulative IPC: 2.24901 (Simulation time: 0 hr 1 min 54 sec) 
Heartbeat CPU  2 instructions:   18000001 cycles:    7237859 heartbeat IPC: 2.49702 cumulative IPC: 2.48692 (Simulation time: 0 hr 1 min 56 sec) 
Heartbeat CPU  3 instructions:   17000000 cycles:    7296570 heartbeat IPC: 2.15883 cumulative IPC: 2.32986 (Simulation time: 0 hr 1 min 57 sec) 
Heartbeat CPU  1 instructions:   19000000 cycles:    7396249 heartbeat IPC: 2.57078 cumulative IPC: 2.56887 (Simulation time: 0 hr 1 min 59 sec) 
Heartbeat CPU  0 instructions:   17000000 cycles:    7567934 heartbeat IPC: 2.20407 cumulative IPC: 2.24632 (Simulation time: 0 hr 2 min 2 sec) 
Heartbeat CPU  2 instructions:   19000003 cycles:    7636374 heartbeat IPC: 2.50932 cumulative IPC: 2.48809 (Simulation time: 0 hr 2 min 3 sec) 
Heartbeat CPU  3 instructions:   18000002 cycles:    7745333 heartbeat IPC: 2.22835 cumulative IPC: 2.32398 (Simulation time: 0 hr 2 min 5 sec) 
Heartbeat CPU  1 instructions:   20000000 cycles:    7782706 heartbeat IPC: 2.58761 cumulative IPC: 2.56980 (Simulation time: 0 hr 2 min 5 sec) 
Heartbeat CPU  0 instructions:   18000001 cycles:    8014010 heartbeat IPC: 2.24177 cumulative IPC: 2.24607 (Simulation time: 0 hr 2 min 9 sec) 
Heartbeat CPU  2 instructions:   20000000 cycles:    8035260 heartbeat IPC: 2.50697 cumulative IPC: 2.48903 (Simulation time: 0 hr 2 min 9 sec) 
Heartbeat CPU  1 instructions:   21000000 cycles:    8168112 heartbeat IPC: 2.59467 cumulative IPC: 2.57097 (Simulation time: 0 hr 2 min 11 sec) 
Heartbeat CPU  3 instructions:   19000003 cycles:    8195660 heartbeat IPC: 2.22061 cumulative IPC: 2.31830 (Simulation time: 0 hr 2 min 12 sec) 
Heartbeat CPU  0 instructions:   19000003 cycles:    8434425 heartbeat IPC: 2.37861 cumulative IPC: 2.25267 (Simulation time: 0 hr 2 min 16 sec) 
Heartbeat CPU  2 instructions:   21000000 cycles:    8438129 heartbeat IPC: 2.48220 cumulative IPC: 2.48870 (Simulation time: 0 hr 2 min 16 sec) 
Heartbeat CPU  1 instructions:   22000000 cycles:    8552023 heartbeat IPC: 2.60477 cumulative IPC: 2.57249 (Simulation time: 0 hr 2 min 18 sec) 
Heartbeat CPU  3 instructions:   20000000 cycles:    8655126 heartbeat IPC: 2.17643 cumulative IPC: 2.31077 (Simulation time: 0 hr 2 min 20 sec) 
Heartbeat CPU  0 instructions:   20000000 cycles:    8825401 heartbeat IPC: 2.55769 cumulative IPC: 2.26619 (Simulation time: 0 hr 2 min 23 sec) 
Heartbeat CPU  2 instructions:   22000000 cycles:    8835525 heartbeat IPC: 2.51638 cumulative IPC: 2.48995 (Simulation time: 0 hr 2 min 23 sec) 
Heartbeat CPU  1 instructions:   23000002 cycles:    8933639 heartbeat IPC: 2.62044 cumulative IPC: 2.57454 (Simulation time: 0 hr 2 min 25 sec) 
Heartbeat CPU  3 instructions:   21000003 cycles:    9082118 heartbeat IPC: 2.34197 cumulative IPC: 2.31224 (Simulation time: 0 hr 2 min 28 sec) 
Heartbeat CPU  0 instructions:   21000001 cycles:    9218810 heartbeat IPC: 2.54189 cumulative IPC: 2.27795 (Simulation time: 0 hr 2 min 30 sec) 
Heartbeat CPU  2 instructions:   23000003 cycles:    9235320 heartbeat IPC: 2.50129 cumulative IPC: 2.49044 (Simulation time: 0 hr 2 min 30 sec) 
Heartbeat CPU  1 instructions:   24000000 cycles:    9315160 heartbeat IPC: 2.62108 cumulative IPC: 2.57645 (Simulation time: 0 hr 2 min 32 sec) 
Heartbeat CPU  3 instructions:   22000000 cycles:    9520760 heartbeat IPC: 2.27976 cumulative IPC: 2.31074 (Simulation time: 0 hr 2 min 36 sec) 
Heartbeat CPU  0 instructions:   22000001 cycles:    9612222 heartbeat IPC: 2.54186 cumulative IPC: 2.28875 (Simulation time: 0 hr 2 min 37 sec) 
Heartbeat CPU  2 instructions:   24000000 cycles:    9633649 heartbeat IPC: 2.51048 cumulative IPC: 2.49127 (Simulation time: 0 hr 2 min 37 sec) 
Heartbeat CPU  1 instructions:   25000003 cycles:    9702763 heartbeat IPC: 2.57997 cumulative IPC: 2.57659 (Simulation time: 0 hr 2 min 39 sec) 
Heartbeat CPU  0 instructions:   23000002 cycles:   10004796 heartbeat IPC: 2.54729 cumulative IPC: 2.29890 (Simulation time: 0 hr 2 min 44 sec) 
Heartbeat CPU  3 instructions:   23000000 cycles:   10014682 heartbeat IPC: 2.02461 cumulative IPC: 2.29663 (Simulation time: 0 hr 2 min 44 sec) 
Heartbeat CPU  2 instructions:   25000003 cycles:   10030336 heartbeat IPC: 2.52089 cumulative IPC: 2.49244 (Simulation time: 0 hr 2 min 44 sec) 
Heartbeat CPU  1 instructions:   26000000 cycles:   10085907 heartbeat IPC: 2.60998 cumulative IPC: 2.57785 (Simulation time: 0 hr 2 min 45 sec) 
Heartbeat CPU  0 instructions:   24000000 cycles:   10398066 heartbeat IPC: 2.54278 cumulative IPC: 2.30812 (Simulation time: 0 hr 2 min 51 sec) 
Heartbeat CPU  2 instructions:   26000000 cycles:   10430952 heartbeat IPC: 2.49615 cumulative IPC: 2.49258 (Simulation time: 0 hr 2 min 51 sec) 
Heartbeat CPU  3 instructions:   24000000 cycles:   10450027 heartbeat IPC: 2.29703 cumulative IPC: 2.29664 (Simulation time: 0 hr 2 min 52 sec) 
Heartbeat CPU  1 instructions:   27000000 cycles:   10474126 heartbeat IPC: 2.57587 cumulative IPC: 2.57778 (Simulation time: 0 hr 2 min 52 sec) 
Heartbeat CPU  0 instructions:   25000000 cycles:   10798811 heartbeat IPC: 2.49535 cumulative IPC: 2.31507 (Simulation time: 0 hr 2 min 58 sec) 
Heartbeat CPU  2 instructions:   27000003 cycles:   10833075 heartbeat IPC: 2.48681 cumulative IPC: 2.49237 (Simulation time: 0 hr 2 min 58 sec) 
Heartbeat CPU  1 instructions:   28000000 cycles:   10858639 heartbeat IPC: 2.60069 cumulative IPC: 2.57859 (Simulation time: 0 hr 2 min 59 sec) 
Heartbeat CPU  3 instructions:   25000003 cycles:   10884437 heartbeat IPC: 2.30198 cumulative IPC: 2.29686 (Simulation time: 0 hr 2 min 59 sec) 
Heartbeat CPU  0 instructions:   26000000 cycles:   11200870 heartbeat IPC: 2.48720 cumulative IPC: 2.32125 (Simulation time: 0 hr 3 min 5 sec) 
Heartbeat CPU  2 instructions:   28000000 cycles:   11232539 heartbeat IPC: 2.50335 cumulative IPC: 2.49276 (Simulation time: 0 hr 3 min 5 sec) 
Heartbeat CPU  1 instructions:   29000000 cycles:   11245871 heartbeat IPC: 2.58243 cumulative IPC: 2.57872 (Simulation time: 0 hr 3 min 5 sec) 
Heartbeat CPU  3 instructions:   26000002 cycles:   11320888 heartbeat IPC: 2.29121 cumulative IPC: 2.29664 (Simulation time: 0 hr 3 min 7 sec) 
Heartbeat CPU  0 instructions:   27000000 cycles:   11613095 heartbeat IPC: 2.42586 cumulative IPC: 2.32496 (Simulation time: 0 hr 3 min 12 sec) 
Heartbeat CPU  2 instructions:   29000001 cycles:   11634674 heartbeat IPC: 2.48673 cumulative IPC: 2.49255 (Simulation time: 0 hr 3 min 12 sec) 
Heartbeat CPU  1 instructions:   30000002 cycles:   11636017 heartbeat IPC: 2.56315 cumulative IPC: 2.57820 (Simulation time: 0 hr 3 min 12 sec) 
Heartbeat CPU  3 instructions:   27000002 cycles:   11933511 heartbeat IPC: 1.63233 cumulative IPC: 2.26254 (Simulation time: 0 hr 3 min 16 sec) 
Heartbeat CPU  0 instructions:   28000000 cycles:   12022125 heartbeat IPC: 2.44481 cumulative IPC: 2.32904 (Simulation time: 0 hr 3 min 18 sec) 
Heartbeat CPU  1 instructions:   31000002 cycles:   12028096 heartbeat IPC: 2.55051 cumulative IPC: 2.57730 (Simulation time: 0 hr 3 min 18 sec) 
Heartbeat CPU  2 instructions:   30000000 cycles:   12034385 heartbeat IPC: 2.50181 cumulative IPC: 2.49286 (Simulation time: 0 hr 3 min 18 sec) 
Heartbeat CPU  3 instructions:   28000000 cycles:   12372532 heartbeat IPC: 2.27779 cumulative IPC: 2.26308 (Simulation time: 0 hr 3 min 24 sec) 
Heartbeat CPU  1 instructions:   32000000 cycles:   12418079 heartbeat IPC: 2.56421 cumulative IPC: 2.57689 (Simulation time: 0 hr 3 min 25 sec) 
Heartbeat CPU  0 instructions:   29000000 cycles:   12430684 heartbeat IPC: 2.44763 cumulative IPC: 2.33294 (Simulation time: 0 hr 3 min 25 sec) 
Heartbeat CPU  2 instructions:   31000003 cycles:   12432631 heartbeat IPC: 2.51102 cumulative IPC: 2.49344 (Simulation time: 0 hr 3 min 25 sec) 
Heartbeat CPU  1 instructions:   33000003 cycles:   12806027 heartbeat IPC: 2.57767 cumulative IPC: 2.57691 (Simulation time: 0 hr 3 min 31 sec) 
Heartbeat CPU  3 instructions:   29000001 cycles:   12812057 heartbeat IPC: 2.27519 cumulative IPC: 2.26349 (Simulation time: 0 hr 3 min 31 sec) 
Heartbeat CPU  2 instructions:   32000000 cycles:   12831824 heartbeat IPC: 2.50505 cumulative IPC: 2.49380 (Simulation time: 0 hr 3 min 32 sec) 
Heartbeat CPU  0 instructions:   30000002 cycles:   12837267 heartbeat IPC: 2.45953 cumulative IPC: 2.33695 (Simulation time: 0 hr 3 min 32 sec) 
Heartbeat CPU  1 instructions:   34000000 cycles:   13195347 heartbeat IPC: 2.56857 cumulative IPC: 2.57667 (Simulation time: 0 hr 3 min 38 sec) 
Heartbeat CPU  2 instructions:   33000003 cycles:   13231426 heartbeat IPC: 2.50250 cumulative IPC: 2.49406 (Simulation time: 0 hr 3 min 39 sec) 
Heartbeat CPU  0 instructions:   31000002 cycles:   13246307 heartbeat IPC: 2.44475 cumulative IPC: 2.34028 (Simulation time: 0 hr 3 min 39 sec) 
Heartbeat CPU  3 instructions:   30000003 cycles:   13249310 heartbeat IPC: 2.28701 cumulative IPC: 2.26427 (Simulation time: 0 hr 3 min 39 sec) 
Heartbeat CPU  1 instructions:   35000000 cycles:   13585516 heartbeat IPC: 2.56299 cumulative IPC: 2.57627 (Simulation time: 0 hr 3 min 45 sec) 
Heartbeat CPU  2 instructions:   34000001 cycles:   13632462 heartbeat IPC: 2.49354 cumulative IPC: 2.49405 (Simulation time: 0 hr 3 min 45 sec) 
Heartbeat CPU  0 instructions:   32000000 cycles:   13654010 heartbeat IPC: 2.45276 cumulative IPC: 2.34363 (Simulation time: 0 hr 3 min 46 sec) 
Heartbeat CPU  3 instructions:   31000000 cycles:   13700016 heartbeat IPC: 2.21873 cumulative IPC: 2.26277 (Simulation time: 0 hr 3 min 47 sec) 
Heartbeat CPU  1 instructions:   36000000 cycles:   13975134 heartbeat IPC: 2.56662 cumulative IPC: 2.57600 (Simulation time: 0 hr 3 min 51 sec) 
Heartbeat CPU  2 instructions:   35000003 cycles:   14032140 heartbeat IPC: 2.50202 cumulative IPC: 2.49427 (Simulation time: 0 hr 3 min 52 sec) 
Heartbeat CPU  0 instructions:   33000000 cycles:   14061985 heartbeat IPC: 2.45113 cumulative IPC: 2.34675 (Simulation time: 0 hr 3 min 53 sec) 
Heartbeat CPU  3 instructions:   32000000 cycles:   14153347 heartbeat IPC: 2.20589 cumulative IPC: 2.26095 (Simulation time: 0 hr 3 min 54 sec) 
Heartbeat CPU  1 instructions:   37000003 cycles:   14361529 heartbeat IPC: 2.58803 cumulative IPC: 2.57633 (Simulation time: 0 hr 3 min 58 sec) 
Heartbeat CPU  2 instructions:   36000000 cycles:   14435473 heartbeat IPC: 2.47933 cumulative IPC: 2.49386 (Simulation time: 0 hr 3 min 59 sec) 
Heartbeat CPU  0 instructions:   34000002 cycles:   14465614 heartbeat IPC: 2.47753 cumulative IPC: 2.35040 (Simulation time: 0 hr 3 min 59 sec) 
Heartbeat CPU  3 instructions:   33000000 cycles:   14592807 heartbeat IPC: 2.27552 cumulative IPC: 2.26139 (Simulation time: 0 hr 4 min 1 sec) 
Heartbeat CPU  1 instructions:   38000001 cycles:   14751967 heartbeat IPC: 2.56122 cumulative IPC: 2.57593 (Simulation time: 0 hr 4 min 4 sec) 
Heartbeat CPU  2 instructions:   37000002 cycles:   14834712 heartbeat IPC: 2.50477 cumulative IPC: 2.49415 (Simulation time: 0 hr 4 min 6 sec) 
Heartbeat CPU  0 instructions:   35000003 cycles:   14872371 heartbeat IPC: 2.45847 cumulative IPC: 2.35336 (Simulation time: 0 hr 4 min 6 sec) 
Heartbeat CPU  3 instructions:   34000001 cycles:   15038977 heartbeat IPC: 2.24130 cumulative IPC: 2.26079 (Simulation time: 0 hr 4 min 9 sec) 
Heartbeat CPU  1 instructions:   39000000 cycles:   15142763 heartbeat IPC: 2.55888 cumulative IPC: 2.57549 (Simulation time: 0 hr 4 min 11 sec) 
Heartbeat CPU  2 instructions:   38000003 cycles:   15236978 heartbeat IPC: 2.48592 cumulative IPC: 2.49393 (Simulation time: 0 hr 4 min 12 sec) 
Heartbeat CPU  0 instructions:   36000000 cycles:   15277959 heartbeat IPC: 2.46555 cumulative IPC: 2.35634 (Simulation time: 0 hr 4 min 13 sec) 
Heartbeat CPU  3 instructions:   35000000 cycles:   15495573 heartbeat IPC: 2.19012 cumulative IPC: 2.25871 (Simulation time: 0 hr 4 min 17 sec) 
Heartbeat CPU  1 instructions:   40000000 cycles:   15531367 heartbeat IPC: 2.57331 cumulative IPC: 2.57543 (Simulation time: 0 hr 4 min 17 sec) 
Heartbeat CPU  2 instructions:   39000000 cycles:   15634988 heartbeat IPC: 2.51249 cumulative IPC: 2.49441 (Simulation time: 0 hr 4 min 19 sec) 
Heartbeat CPU  0 instructions:   37000000 cycles:   15681965 heartbeat IPC: 2.47521 cumulative IPC: 2.35940 (Simulation time: 0 hr 4 min 20 sec) 
Heartbeat CPU  1 instructions:   41000001 cycles:   15920061 heartbeat IPC: 2.57272 cumulative IPC: 2.57537 (Simulation time: 0 hr 4 min 24 sec) 
Heartbeat CPU  3 instructions:   36000000 cycles:   15924657 heartbeat IPC: 2.33055 cumulative IPC: 2.26065 (Simulation time: 0 hr 4 min 24 sec) 
Heartbeat CPU  2 instructions:   40000000 cycles:   16038347 heartbeat IPC: 2.47918 cumulative IPC: 2.49402 (Simulation time: 0 hr 4 min 26 sec) 
Heartbeat CPU  0 instructions:   38000001 cycles:   16084287 heartbeat IPC: 2.48557 cumulative IPC: 2.36255 (Simulation time: 0 hr 4 min 27 sec) 
Heartbeat CPU  1 instructions:   42000001 cycles:   16307482 heartbeat IPC: 2.58117 cumulative IPC: 2.57551 (Simulation time: 0 hr 4 min 31 sec) 
Heartbeat CPU  3 instructions:   37000001 cycles:   16424366 heartbeat IPC: 2.00117 cumulative IPC: 2.25275 (Simulation time: 0 hr 4 min 32 sec) 
Heartbeat CPU  2 instructions:   41000002 cycles:   16438910 heartbeat IPC: 2.49649 cumulative IPC: 2.49408 (Simulation time: 0 hr 4 min 33 sec) 
Heartbeat CPU  0 instructions:   39000001 cycles:   16486960 heartbeat IPC: 2.48340 cumulative IPC: 2.36551 (Simulation time: 0 hr 4 min 34 sec) 
Heartbeat CPU  1 instructions:   43000003 cycles:   16695262 heartbeat IPC: 2.57879 cumulative IPC: 2.57558 (Simulation time: 0 hr 4 min 37 sec) 
Heartbeat CPU  2 instructions:   42000002 cycles:   16836252 heartbeat IPC: 2.51672 cumulative IPC: 2.49462 (Simulation time: 0 hr 4 min 40 sec) 
Heartbeat CPU  3 instructions:   38000001 cycles:   16850956 heartbeat IPC: 2.34417 cumulative IPC: 2.25506 (Simulation time: 0 hr 4 min 40 sec) 
Heartbeat CPU  0 instructions:   40000000 cycles:   16887695 heartbeat IPC: 2.49541 cumulative IPC: 2.36859 (Simulation time: 0 hr 4 min 41 sec) 
Heartbeat CPU  1 instructions:   44000000 cycles:   17082502 heartbeat IPC: 2.58237 cumulative IPC: 2.57574 (Simulation time: 0 hr 4 min 44 sec) 
Heartbeat CPU  2 instructions:   43000000 cycles:   17237841 heartbeat IPC: 2.49010 cumulative IPC: 2.49451 (Simulation time: 0 hr 4 min 47 sec) 
Heartbeat CPU  3 instructions:   39000002 cycles:   17287743 heartbeat IPC: 2.28945 cumulative IPC: 2.25593 (Simulation time: 0 hr 4 min 47 sec) 
Heartbeat CPU  0 instructions:   41000000 cycles:   17300930 heartbeat IPC: 2.41993 cumulative IPC: 2.36981 (Simulation time: 0 hr 4 min 48 sec) 
Heartbeat CPU  1 instructions:   45000002 cycles:   17470225 heartbeat IPC: 2.57917 cumulative IPC: 2.57581 (Simulation time: 0 hr 4 min 51 sec) 
Heartbeat CPU  2 instructions:   44000000 cycles:   17638204 heartbeat IPC: 2.49773 cumulative IPC: 2.49459 (Simulation time: 0 hr 4 min 53 sec) 
Heartbeat CPU  0 instructions:   42000001 cycles:   17711904 heartbeat IPC: 2.43325 cumulative IPC: 2.37129 (Simulation time: 0 hr 4 min 55 sec) 
Heartbeat CPU  3 instructions:   40000000 cycles:   17722531 heartbeat IPC: 2.29997 cumulative IPC: 2.25701 (Simulation time: 0 hr 4 min 55 sec) 
Heartbeat CPU  1 instructions:   46000002 cycles:   17860496 heartbeat IPC: 2.56232 cumulative IPC: 2.57552 (Simulation time: 0 hr 4 min 57 sec) 
Heartbeat CPU  2 instructions:   45000001 cycles:   18034993 heartbeat IPC: 2.52023 cumulative IPC: 2.49515 (Simulation time: 0 hr 5 min 0 sec) 
Heartbeat CPU  0 instructions:   43000002 cycles:   18122552 heartbeat IPC: 2.43518 cumulative IPC: 2.37273 (Simulation time: 0 hr 5 min 2 sec) 
Heartbeat CPU  3 instructions:   41000000 cycles:   18158222 heartbeat IPC: 2.29520 cumulative IPC: 2.25793 (Simulation time: 0 hr 5 min 2 sec) 
Heartbeat CPU  1 instructions:   47000001 cycles:   18250723 heartbeat IPC: 2.56261 cumulative IPC: 2.57524 (Simulation time: 0 hr 5 min 4 sec) 
Heartbeat CPU  2 instructions:   46000000 cycles:   18433029 heartbeat IPC: 2.51233 cumulative IPC: 2.49552 (Simulation time: 0 hr 5 min 7 sec) 
Heartbeat CPU  0 instructions:   44000000 cycles:   18538349 heartbeat IPC: 2.40501 cumulative IPC: 2.37346 (Simulation time: 0 hr 5 min 8 sec) 
Heartbeat CPU  1 instructions:   48000000 cycles:   18642000 heartbeat IPC: 2.55573 cumulative IPC: 2.57483 (Simulation time: 0 hr 5 min 10 sec) 
Heartbeat CPU  3 instructions:   42000003 cycles:   18765077 heartbeat IPC: 1.64785 cumulative IPC: 2.23820 (Simulation time: 0 hr 5 min 12 sec) 
Heartbeat CPU  2 instructions:   47000001 cycles:   18834094 heartbeat IPC: 2.49336 cumulative IPC: 2.49547 (Simulation time: 0 hr 5 min 13 sec) 
Heartbeat CPU  0 instructions:   45000002 cycles:   18960618 heartbeat IPC: 2.36816 cumulative IPC: 2.37334 (Simulation time: 0 hr 5 min 15 sec) 
Heartbeat CPU  1 instructions:   49000001 cycles:   19032863 heartbeat IPC: 2.55844 cumulative IPC: 2.57449 (Simulation time: 0 hr 5 min 16 sec) 
Heartbeat CPU  3 instructions:   43000000 cycles:   19206015 heartbeat IPC: 2.26789 cumulative IPC: 2.23888 (Simulation time: 0 hr 5 min 19 sec) 
Heartbeat CPU  2 instructions:   48000000 cycles:   19232549 heartbeat IPC: 2.50969 cumulative IPC: 2.49577 (Simulation time: 0 hr 5 min 20 sec) 
Heartbeat CPU  0 instructions:   46000003 cycles:   19385900 heartbeat IPC: 2.35138 cumulative IPC: 2.37286 (Simulation time: 0 hr 5 min 22 sec) 
Heartbeat CPU  1 instructions:   50000002 cycles:   19422724 heartbeat IPC: 2.56502 cumulative IPC: 2.57430 (Simulation time: 0 hr 5 min 23 sec) 
Heartbeat CPU  2 instructions:   49000001 cycles:   19634324 heartbeat IPC: 2.48896 cumulative IPC: 2.49563 (Simulation time: 0 hr 5 min 26 sec) 
Heartbeat CPU  3 instructions:   44000000 cycles:   19644582 heartbeat IPC: 2.28015 cumulative IPC: 2.23980 (Simulation time: 0 hr 5 min 26 sec) 
Heartbeat CPU  1 instructions:   51000001 cycles:   19814413 heartbeat IPC: 2.55304 cumulative IPC: 0.05047 (Simulation time: 0 hr 5 min 29 sec) 
Heartbeat CPU  0 instructions:   47000002 cycles:   19827879 heartbeat IPC: 2.26255 cumulative IPC: 2.37040 (Simulation time: 0 hr 5 min 30 sec) 
Heartbeat CPU  2 instructions:   50000001 cycles:   20033061 heartbeat IPC: 2.50792 cumulative IPC: 2.49587 (Simulation time: 0 hr 5 min 33 sec) 
Heartbeat CPU  3 instructions:   45000001 cycles:   20084597 heartbeat IPC: 2.27265 cumulative IPC: 2.24052 (Simulation time: 0 hr 5 min 34 sec) 
Heartbeat CPU  1 instructions:   52000000 cycles:   20206058 heartbeat IPC: 2.55333 cumulative IPC: 0.09898 (Simulation time: 0 hr 5 min 36 sec) 
Heartbeat CPU  0 instructions:   48000000 cycles:   20271589 heartbeat IPC: 2.25372 cumulative IPC: 2.36785 (Simulation time: 0 hr 5 min 37 sec) 
Heartbeat CPU  2 instructions:   51000000 cycles:   20431001 heartbeat IPC: 2.51294 cumulative IPC: 0.04895 (Simulation time: 0 hr 5 min 39 sec) 
Heartbeat CPU  3 instructions:   46000001 cycles:   20537986 heartbeat IPC: 2.20561 cumulative IPC: 2.23975 (Simulation time: 0 hr 5 min 41 sec) 
Heartbeat CPU  1 instructions:   53000003 cycles:   20591466 heartbeat IPC: 2.59466 cumulative IPC: 0.14569 (Simulation time: 0 hr 5 min 42 sec) 
Heartbeat CPU  0 instructions:   49000001 cycles:   20671696 heartbeat IPC: 2.49933 cumulative IPC: 2.37039 (Simulation time: 0 hr 5 min 43 sec) 
Heartbeat CPU  2 instructions:   52000000 cycles:   20828783 heartbeat IPC: 2.51394 cumulative IPC: 0.09602 (Simulation time: 0 hr 5 min 45 sec) 
Heartbeat CPU  1 instructions:   54000002 cycles:   20978366 heartbeat IPC: 2.58464 cumulative IPC: 0.19067 (Simulation time: 0 hr 5 min 48 sec) 
Heartbeat CPU  3 instructions:   47000000 cycles:   20985168 heartbeat IPC: 2.23622 cumulative IPC: 2.23968 (Simulation time: 0 hr 5 min 48 sec) 
Heartbeat CPU  0 instructions:   50000003 cycles:   21069358 heartbeat IPC: 2.51470 cumulative IPC: 2.37311 (Simulation time: 0 hr 5 min 49 sec) 
Heartbeat CPU  2 instructions:   53000001 cycles:   21227222 heartbeat IPC: 2.50980 cumulative IPC: 0.14133 (Simulation time: 0 hr 5 min 52 sec) 
Heartbeat CPU  1 instructions:   55000002 cycles:   21368026 heartbeat IPC: 2.56634 cumulative IPC: 0.23399 (Simulation time: 0 hr 5 min 54 sec) 
Heartbeat CPU  3 instructions:   48000000 cycles:   21427407 heartbeat IPC: 2.26122 cumulative IPC: 2.24012 (Simulation time: 0 hr 5 min 55 sec) 
Heartbeat CPU  0 instructions:   51000001 cycles:   21459875 heartbeat IPC: 2.56070 cumulative IPC: 0.04660 (Simulation time: 0 hr 5 min 55 sec) 
Heartbeat CPU  2 instructions:   54000000 cycles:   21626003 heartbeat IPC: 2.50764 cumulative IPC: 0.18496 (Simulation time: 0 hr 5 min 58 sec) 
Heartbeat CPU  1 instructions:   56000000 cycles:   21758155 heartbeat IPC: 2.56325 cumulative IPC: 0.27576 (Simulation time: 0 hr 6 min 0 sec) 
Heartbeat CPU  0 instructions:   52000000 cycles:   21866121 heartbeat IPC: 2.46156 cumulative IPC: 0.09147 (Simulation time: 0 hr 6 min 2 sec) 
Heartbeat CPU  3 instructions:   49000000 cycles:   21870585 heartbeat IPC: 2.25643 cumulative IPC: 2.24045 (Simulation time: 0 hr 6 min 2 sec) 
Heartbeat CPU  2 instructions:   55000001 cycles:   22025031 heartbeat IPC: 2.50609 cumulative IPC: 0.22701 (Simulation time: 0 hr 6 min 4 sec) 
Heartbeat CPU  1 instructions:   57000000 cycles:   22148342 heartbeat IPC: 2.56287 cumulative IPC: 0.31605 (Simulation time: 0 hr 6 min 6 sec) 
Heartbeat CPU  0 instructions:   53000003 cycles:   22253420 heartbeat IPC: 2.58199 cumulative IPC: 0.13481 (Simulation time: 0 hr 6 min 8 sec) 
Heartbeat CPU  3 instructions:   50000000 cycles:   22321528 heartbeat IPC: 2.21758 cumulative IPC: 2.23999 (Simulation time: 0 hr 6 min 9 sec) 

Warmup complete CPU  0 instructions:   53176051 cycles:   22321529 (Simulation time: 0 hr 6 min 9 sec) 
Warmup complete CPU  1 instructions:   57443098 cycles:   22321528 (Simulation time: 0 hr 6 min 9 sec) 
Warmup complete CPU  2 instructions:   55742152 cycles:   22321528 (Simulation time: 0 hr 6 min 9 sec) 
Warmup complete CPU  3 instructions:   50000004 cycles:   22321529 (Simulation time: 0 hr 6 min 9 sec) 

Heartbeat CPU  2 instructions:   56000000 cycles:   24014619 heartbeat IPC: 0.50262 cumulative IPC: 0.15229 (Simulation time: 0 hr 6 min 12 sec) 
Heartbeat CPU  1 instructions:   58000001 cycles:   25966891 heartbeat IPC: 0.26188 cumulative IPC: 0.15277 (Simulation time: 0 hr 6 min 15 sec) 
Heartbeat CPU  0 instructions:   54000002 cycles:   27396019 heartbeat IPC: 0.19445 cumulative IPC: 0.16237 (Simulation time: 0 hr 6 min 17 sec) 
Heartbeat CPU  2 instructions:   57000000 cycles:   30618071 heartbeat IPC: 0.15144 cumulative IPC: 0.15161 (Simulation time: 0 hr 6 min 21 sec) 
Heartbeat CPU  3 instructions:   51000003 cycles:   30717965 heartbeat IPC: 0.11910 cumulative IPC: 0.11910 (Simulation time: 0 hr 6 min 22 sec) 
Heartbeat CPU  1 instructions:   59000003 cycles:   32480426 heartbeat IPC: 0.15353 cumulative IPC: 0.15326 (Simulation time: 0 hr 6 min 24 sec) 
Heartbeat CPU  0 instructions:   55000003 cycles:   33562957 heartbeat IPC: 0.16216 cumulative IPC: 0.16225 (Simulation time: 0 hr 6 min 26 sec) 
Heartbeat CPU  2 instructions:   58000001 cycles:   37217738 heartbeat IPC: 0.15152 cumulative IPC: 0.15157 (Simulation time: 0 hr 6 min 31 sec) 
Heartbeat CPU  1 instructions:   60000000 cycles:   38999308 heartbeat IPC: 0.15340 cumulative IPC: 0.15331 (Simulation time: 0 hr 6 min 34 sec) 
Heartbeat CPU  3 instructions:   52000000 cycles:   39101447 heartbeat IPC: 0.11928 cumulative IPC: 0.11919 (Simulation time: 0 hr 6 min 34 sec) 
Heartbeat CPU  0 instructions:   56000000 cycles:   39485659 heartbeat IPC: 0.16884 cumulative IPC: 0.16453 (Simulation time: 0 hr 6 min 35 sec) 
Heartbeat CPU  2 instructions:   59000002 cycles:   43815916 heartbeat IPC: 0.15156 cumulative IPC: 0.15157 (Simulation time: 0 hr 6 min 41 sec) 
Heartbeat CPU  1 instructions:   61000002 cycles:   45475777 heartbeat IPC: 0.15441 cumulative IPC: 0.15362 (Simulation time: 0 hr 6 min 43 sec) 
Heartbeat CPU  0 instructions:   57000003 cycles:   45478452 heartbeat IPC: 0.16687 cumulative IPC: 0.16513 (Simulation time: 0 hr 6 min 43 sec) 
Heartbeat CPU  3 instructions:   53000002 cycles:   47526323 heartbeat IPC: 0.11870 cumulative IPC: 0.11902 (Simulation time: 0 hr 6 min 46 sec) 
Heartbeat CPU  2 instructions:   60000000 cycles:   50419733 heartbeat IPC: 0.15143 cumulative IPC: 0.15153 (Simulation time: 0 hr 6 min 51 sec) 
Heartbeat CPU  0 instructions:   58000003 cycles:   51562471 heartbeat IPC: 0.16437 cumulative IPC: 0.16497 (Simulation time: 0 hr 6 min 52 sec) 
Heartbeat CPU  1 instructions:   62000003 cycles:   52012334 heartbeat IPC: 0.15299 cumulative IPC: 0.15348 (Simulation time: 0 hr 6 min 53 sec) 
Heartbeat CPU  3 instructions:   54000001 cycles:   55968317 heartbeat IPC: 0.11846 cumulative IPC: 0.11888 (Simulation time: 0 hr 6 min 59 sec) 
Heartbeat CPU  2 instructions:   61000000 cycles:   57031909 heartbeat IPC: 0.15124 cumulative IPC: 0.15148 (Simulation time: 0 hr 7 min 0 sec) 
Heartbeat CPU  0 instructions:   59000000 cycles:   57697388 heartbeat IPC: 0.16300 cumulative IPC: 0.16463 (Simulation time: 0 hr 7 min 1 sec) 
Heartbeat CPU  1 instructions:   63000002 cycles:   58551558 heartbeat IPC: 0.15292 cumulative IPC: 0.15338 (Simulation time: 0 hr 7 min 3 sec) 
Heartbeat CPU  2 instructions:   62000002 cycles:   63618948 heartbeat IPC: 0.15181 cumulative IPC: 0.15153 (Simulation time: 0 hr 7 min 10 sec) 
Heartbeat CPU  0 instructions:   60000000 cycles:   63798739 heartbeat IPC: 0.16390 cumulative IPC: 0.16452 (Simulation time: 0 hr 7 min 10 sec) 
Heartbeat CPU  3 instructions:   55000001 cycles:   64437940 heartbeat IPC: 0.11807 cumulative IPC: 0.11872 (Simulation time: 0 hr 7 min 11 sec) 
Heartbeat CPU  1 instructions:   64000000 cycles:   65050543 heartbeat IPC: 0.15387 cumulative IPC: 0.15345 (Simulation time: 0 hr 7 min 12 sec) 
Heartbeat CPU  0 instructions:   61000000 cycles:   69845247 heartbeat IPC: 0.16538 cumulative IPC: 0.16463 (Simulation time: 0 hr 7 min 19 sec) 
Heartbeat CPU  2 instructions:   63000000 cycles:   70226397 heartbeat IPC: 0.15134 cumulative IPC: 0.15151 (Simulation time: 0 hr 7 min 20 sec) 
Heartbeat CPU  1 instructions:   65000003 cycles:   71548366 heartbeat IPC: 0.15390 cumulative IPC: 0.15351 (Simulation time: 0 hr 7 min 22 sec) 
Heartbeat CPU  3 instructions:   56000000 cycles:   72890642 heartbeat IPC: 0.11831 cumulative IPC: 0.11865 (Simulation time: 0 hr 7 min 24 sec) 
Heartbeat CPU  0 instructions:   62000001 cycles:   76021334 heartbeat IPC: 0.16191 cumulative IPC: 0.16432 (Simulation time: 0 hr 7 min 29 sec) 
Heartbeat CPU  2 instructions:   64000000 cycles:   76882007 heartbeat IPC: 0.15025 cumulative IPC: 0.15135 (Simulation time: 0 hr 7 min 30 sec) 
Heartbeat CPU  1 instructions:   66000003 cycles:   78124454 heartbeat IPC: 0.15207 cumulative IPC: 0.15334 (Simulation time: 0 hr 7 min 32 sec) 
Heartbeat CPU  3 instructions:   57000003 cycles:   81569104 heartbeat IPC: 0.11523 cumulative IPC: 0.11815 (Simulation time: 0 hr 7 min 37 sec) 
Heartbeat CPU  0 instructions:   63000001 cycles:   81789996 heartbeat IPC: 0.17335 cumulative IPC: 0.16520 (Simulation time: 0 hr 7 min 37 sec) 
Heartbeat CPU  2 instructions:   65000002 cycles:   83495080 heartbeat IPC: 0.15122 cumulative IPC: 0.15134 (Simulation time: 0 hr 7 min 40 sec) 
Heartbeat CPU  1 instructions:   67000001 cycles:   84759859 heartbeat IPC: 0.15071 cumulative IPC: 0.15306 (Simulation time: 0 hr 7 min 41 sec) 
Heartbeat CPU  0 instructions:   64000000 cycles:   89305247 heartbeat IPC: 0.13306 cumulative IPC: 0.16159 (Simulation time: 0 hr 7 min 48 sec) 
Heartbeat CPU  3 instructions:   58000002 cycles:   90020745 heartbeat IPC: 0.11832 cumulative IPC: 0.11817 (Simulation time: 0 hr 7 min 49 sec) 
Heartbeat CPU  2 instructions:   66000000 cycles:   90142347 heartbeat IPC: 0.15044 cumulative IPC: 0.15125 (Simulation time: 0 hr 7 min 49 sec) 
Heartbeat CPU  1 instructions:   68000000 cycles:   91389485 heartbeat IPC: 0.15084 cumulative IPC: 0.15285 (Simulation time: 0 hr 7 min 51 sec) 
Heartbeat CPU  0 instructions:   65000000 cycles:   95084877 heartbeat IPC: 0.17302 cumulative IPC: 0.16250 (Simulation time: 0 hr 7 min 56 sec) 
Heartbeat CPU  2 instructions:   67000000 cycles:   96753138 heartbeat IPC: 0.15127 cumulative IPC: 0.15125 (Simulation time: 0 hr 7 min 59 sec) 
Heartbeat CPU  1 instructions:   69000003 cycles:   98048602 heartbeat IPC: 0.15017 cumulative IPC: 0.15261 (Simulation time: 0 hr 8 min 1 sec) 
Heartbeat CPU  3 instructions:   59000003 cycles:   98511799 heartbeat IPC: 0.11777 cumulative IPC: 0.11813 (Simulation time: 0 hr 8 min 2 sec) 
Heartbeat CPU  0 instructions:   66000001 cycles:  100193312 heartbeat IPC: 0.19575 cumulative IPC: 0.16468 (Simulation time: 0 hr 8 min 4 sec) 
Heartbeat CPU  2 instructions:   68000000 cycles:  103440855 heartbeat IPC: 0.14953 cumulative IPC: 0.15111 (Simulation time: 0 hr 8 min 9 sec) 
Heartbeat CPU  1 instructions:   70000002 cycles:  104704295 heartbeat IPC: 0.15025 cumulative IPC: 0.15242 (Simulation time: 0 hr 8 min 11 sec) 
Heartbeat CPU  3 instructions:   60000000 cycles:  104873004 heartbeat IPC: 0.15720 cumulative IPC: 0.12114 (Simulation time: 0 hr 8 min 11 sec) 
Heartbeat CPU  0 instructions:   67000003 cycles:  107714569 heartbeat IPC: 0.13296 cumulative IPC: 0.16189 (Simulation time: 0 hr 8 min 16 sec) 
Heartbeat CPU  3 instructions:   61000001 cycles:  109609497 heartbeat IPC: 0.21113 cumulative IPC: 0.12602 (Simulation time: 0 hr 8 min 20 sec) 
Heartbeat CPU  2 instructions:   69000000 cycles:  110115114 heartbeat IPC: 0.14983 cumulative IPC: 0.15101 (Simulation time: 0 hr 8 min 21 sec) 
Heartbeat CPU  0 instructions:   68000000 cycles:  110733067 heartbeat IPC: 0.33129 cumulative IPC: 0.16767 (Simulation time: 0 hr 8 min 22 sec) 
Heartbeat CPU  1 instructions:   71000003 cycles:  111334539 heartbeat IPC: 0.15082 cumulative IPC: 0.15230 (Simulation time: 0 hr 8 min 23 sec) 
Heartbeat CPU  3 instructions:   62000003 cycles:  116691108 heartbeat IPC: 0.14121 cumulative IPC: 0.12716 (Simulation time: 0 hr 8 min 30 sec) 
Heartbeat CPU  2 instructions:   70000000 cycles:  116793880 heartbeat IPC: 0.14973 cumulative IPC: 0.15092 (Simulation time: 0 hr 8 min 31 sec) 
Heartbeat CPU  1 instructions:   72000000 cycles:  117970192 heartbeat IPC: 0.15070 cumulative IPC: 0.15219 (Simulation time: 0 hr 8 min 32 sec) 
Heartbeat CPU  0 instructions:   69000003 cycles:  118264312 heartbeat IPC: 0.13278 cumulative IPC: 0.16493 (Simulation time: 0 hr 8 min 33 sec) 
Heartbeat CPU  0 instructions:   70000001 cycles:  123140526 heartbeat IPC: 0.20508 cumulative IPC: 0.16687 (Simulation time: 0 hr 8 min 40 sec) 
Heartbeat CPU  2 instructions:   71000001 cycles:  123476251 heartbeat IPC: 0.14965 cumulative IPC: 0.15084 (Simulation time: 0 hr 8 min 41 sec) 
Heartbeat CPU  1 instructions:   73000001 cycles:  124580083 heartbeat IPC: 0.15129 cumulative IPC: 0.15213 (Simulation time: 0 hr 8 min 43 sec) 
Heartbeat CPU  3 instructions:   63000000 cycles:  124947687 heartbeat IPC: 0.12112 cumulative IPC: 0.12667 (Simulation time: 0 hr 8 min 43 sec) 
Heartbeat CPU  0 instructions:   71000001 cycles:  128777446 heartbeat IPC: 0.17740 cumulative IPC: 0.16743 (Simulation time: 0 hr 8 min 48 sec) 
Heartbeat CPU  2 instructions:   72000000 cycles:  130111383 heartbeat IPC: 0.15071 cumulative IPC: 0.15083 (Simulation time: 0 hr 8 min 50 sec) 
Heartbeat CPU  1 instructions:   74000003 cycles:  131201045 heartbeat IPC: 0.15104 cumulative IPC: 0.15207 (Simulation time: 0 hr 8 min 52 sec) 
Heartbeat CPU  3 instructions:   64000000 cycles:  133235186 heartbeat IPC: 0.12066 cumulative IPC: 0.12622 (Simulation time: 0 hr 8 min 55 sec) 
Heartbeat CPU  0 instructions:   72000000 cycles:  136139906 heartbeat IPC: 0.13582 cumulative IPC: 0.16539 (Simulation time: 0 hr 8 min 59 sec) 
Heartbeat CPU  2 instructions:   73000002 cycles:  136755344 heartbeat IPC: 0.15051 cumulative IPC: 0.15081 (Simulation time: 0 hr 9 min 0 sec) 
Heartbeat CPU  1 instructions:   75000003 cycles:  137756613 heartbeat IPC: 0.15254 cumulative IPC: 0.15209 (Simulation time: 0 hr 9 min 2 sec) 
Heartbeat CPU  0 instructions:   73000003 cycles:  139268371 heartbeat IPC: 0.31965 cumulative IPC: 0.16951 (Simulation time: 0 hr 9 min 4 sec) 
Heartbeat CPU  3 instructions:   65000003 cycles:  141559800 heartbeat IPC: 0.12013 cumulative IPC: 0.12580 (Simulation time: 0 hr 9 min 8 sec) 
Heartbeat CPU  2 instructions:   74000001 cycles:  143396626 heartbeat IPC: 0.15057 cumulative IPC: 0.15080 (Simulation time: 0 hr 9 min 10 sec) 
Heartbeat CPU  1 instructions:   76000000 cycles:  144327687 heartbeat IPC: 0.15218 cumulative IPC: 0.15210 (Simulation time: 0 hr 9 min 12 sec) 
Heartbeat CPU  0 instructions:   74000002 cycles:  146776446 heartbeat IPC: 0.13319 cumulative IPC: 0.16732 (Simulation time: 0 hr 9 min 15 sec) 
Heartbeat CPU  3 instructions:   66000003 cycles:  149871589 heartbeat IPC: 0.12031 cumulative IPC: 0.12544 (Simulation time: 0 hr 9 min 20 sec) 
Heartbeat CPU  2 instructions:   75000002 cycles:  150057716 heartbeat IPC: 0.15013 cumulative IPC: 0.15076 (Simulation time: 0 hr 9 min 20 sec) 
Heartbeat CPU  0 instructions:   75000003 cycles:  150543913 heartbeat IPC: 0.26543 cumulative IPC: 0.17020 (Simulation time: 0 hr 9 min 21 sec) 
Heartbeat CPU  1 instructions:   77000000 cycles:  150941425 heartbeat IPC: 0.15120 cumulative IPC: 0.15205 (Simulation time: 0 hr 9 min 22 sec) 
Heartbeat CPU  0 instructions:   76000000 cycles:  156065774 heartbeat IPC: 0.18110 cumulative IPC: 0.17065 (Simulation time: 0 hr 9 min 30 sec) 
Heartbeat CPU  2 instructions:   76000000 cycles:  156700529 heartbeat IPC: 0.15054 cumulative IPC: 0.15075 (Simulation time: 0 hr 9 min 31 sec) 
Heartbeat CPU  1 instructions:   78000000 cycles:  157554777 heartbeat IPC: 0.15121 cumulative IPC: 0.15201 (Simulation time: 0 hr 9 min 32 sec) 
Heartbeat CPU  3 instructions:   67000003 cycles:  158212838 heartbeat IPC: 0.11989 cumulative IPC: 0.12510 (Simulation time: 0 hr 9 min 33 sec) 
Heartbeat CPU  0 instructions:   77000003 cycles:  161886551 heartbeat IPC: 0.17180 cumulative IPC: 0.17070 (Simulation time: 0 hr 9 min 38 sec) 
Heartbeat CPU  2 instructions:   77000001 cycles:  163363560 heartbeat IPC: 0.15008 cumulative IPC: 0.15072 (Simulation time: 0 hr 9 min 41 sec) 
Heartbeat CPU  1 instructions:   79000003 cycles:  164081849 heartbeat IPC: 0.15321 cumulative IPC: 0.15207 (Simulation time: 0 hr 9 min 42 sec) 
Heartbeat CPU  3 instructions:   68000000 cycles:  166519683 heartbeat IPC: 0.12038 cumulative IPC: 0.12483 (Simulation time: 0 hr 9 min 45 sec) 
Heartbeat CPU  0 instructions:   78000003 cycles:  167511410 heartbeat IPC: 0.17778 cumulative IPC: 0.17098 (Simulation time: 0 hr 9 min 47 sec) 
Heartbeat CPU  2 instructions:   78000001 cycles:  170007019 heartbeat IPC: 0.15052 cumulative IPC: 0.15071 (Simulation time: 0 hr 9 min 50 sec) 
Heartbeat CPU  1 instructions:   80000000 cycles:  170659601 heartbeat IPC: 0.15203 cumulative IPC: 0.15206 (Simulation time: 0 hr 9 min 51 sec) 
Heartbeat CPU  0 instructions:   79000001 cycles:  174894083 heartbeat IPC: 0.13545 cumulative IPC: 0.16926 (Simulation time: 0 hr 9 min 57 sec) 
Heartbeat CPU  3 instructions:   69000000 cycles:  174901066 heartbeat IPC: 0.11931 cumulative IPC: 0.12453 (Simulation time: 0 hr 9 min 57 sec) 
Heartbeat CPU  2 instructions:   79000001 cycles:  176653239 heartbeat IPC: 0.15046 cumulative IPC: 0.15070 (Simulation time: 0 hr 10 min 0 sec) 
Heartbeat CPU  1 instructions:   81000000 cycles:  177174721 heartbeat IPC: 0.15349 cumulative IPC: 0.15212 (Simulation time: 0 hr 10 min 1 sec) 
Heartbeat CPU  0 instructions:   80000000 cycles:  183051303 heartbeat IPC: 0.12259 cumulative IPC: 0.16689 (Simulation time: 0 hr 10 min 9 sec) 
Heartbeat CPU  3 instructions:   70000003 cycles:  183294687 heartbeat IPC: 0.11914 cumulative IPC: 0.12424 (Simulation time: 0 hr 10 min 9 sec) 
Heartbeat CPU  2 instructions:   80000000 cycles:  183303988 heartbeat IPC: 0.15036 cumulative IPC: 0.15069 (Simulation time: 0 hr 10 min 9 sec) 
Heartbeat CPU  1 instructions:   82000001 cycles:  183644297 heartbeat IPC: 0.15457 cumulative IPC: 0.15222 (Simulation time: 0 hr 10 min 10 sec) 
Heartbeat CPU  2 instructions:   81000000 cycles:  189972389 heartbeat IPC: 0.14996 cumulative IPC: 0.15066 (Simulation time: 0 hr 10 min 19 sec) 
Heartbeat CPU  1 instructions:   83000003 cycles:  190109963 heartbeat IPC: 0.15466 cumulative IPC: 0.15232 (Simulation time: 0 hr 10 min 19 sec) 
Heartbeat CPU  0 instructions:   81000001 cycles:  191238929 heartbeat IPC: 0.12214 cumulative IPC: 0.16472 (Simulation time: 0 hr 10 min 21 sec) 
Heartbeat CPU  3 instructions:   71000001 cycles:  192000069 heartbeat IPC: 0.11487 cumulative IPC: 0.12376 (Simulation time: 0 hr 10 min 22 sec) 
Heartbeat CPU  2 instructions:   82000002 cycles:  196612882 heartbeat IPC: 0.15059 cumulative IPC: 0.15065 (Simulation time: 0 hr 10 min 28 sec) 
Heartbeat CPU  1 instructions:   84000000 cycles:  196614336 heartbeat IPC: 0.15374 cumulative IPC: 0.15237 (Simulation time: 0 hr 10 min 28 sec) 
Heartbeat CPU  0 instructions:   82000001 cycles:  199313037 heartbeat IPC: 0.12385 cumulative IPC: 0.16285 (Simulation time: 0 hr 10 min 32 sec) 
Heartbeat CPU  3 instructions:   72000000 cycles:  200347458 heartbeat IPC: 0.11980 cumulative IPC: 0.12358 (Simulation time: 0 hr 10 min 34 sec) 
Heartbeat CPU  1 instructions:   85000001 cycles:  203123718 heartbeat IPC: 0.15362 cumulative IPC: 0.15241 (Simulation time: 0 hr 10 min 38 sec) 
Heartbeat CPU  2 instructions:   83000002 cycles:  203286353 heartbeat IPC: 0.14985 cumulative IPC: 0.15063 (Simulation time: 0 hr 10 min 38 sec) 
Heartbeat CPU  0 instructions:   83000000 cycles:  207501624 heartbeat IPC: 0.12212 cumulative IPC: 0.16105 (Simulation time: 0 hr 10 min 44 sec) 
Heartbeat CPU  3 instructions:   73000001 cycles:  208724522 heartbeat IPC: 0.11937 cumulative IPC: 0.12339 (Simulation time: 0 hr 10 min 46 sec) 
Heartbeat CPU  1 instructions:   86000001 cycles:  209603546 heartbeat IPC: 0.15433 cumulative IPC: 0.15248 (Simulation time: 0 hr 10 min 47 sec) 
Heartbeat CPU  2 instructions:   84000000 cycles:  209932829 heartbeat IPC: 0.15046 cumulative IPC: 0.15062 (Simulation time: 0 hr 10 min 48 sec) 
Heartbeat CPU  0 instructions:   84000000 cycles:  215594788 heartbeat IPC: 0.12356 cumulative IPC: 0.15948 (Simulation time: 0 hr 10 min 56 sec) 
Heartbeat CPU  1 instructions:   87000001 cycles:  216135990 heartbeat IPC: 0.15308 cumulative IPC: 0.15250 (Simulation time: 0 hr 10 min 57 sec) 
Heartbeat CPU  2 instructions:   85000000 cycles:  216625763 heartbeat IPC: 0.14941 cumulative IPC: 0.15058 (Simulation time: 0 hr 10 min 57 sec) 
Heartbeat CPU  3 instructions:   74000002 cycles:  217146788 heartbeat IPC: 0.11873 cumulative IPC: 0.12319 (Simulation time: 0 hr 10 min 58 sec) 
Heartbeat CPU  3 instructions:   75000002 cycles:  222260526 heartbeat IPC: 0.19555 cumulative IPC: 0.12504 (Simulation time: 0 hr 11 min 6 sec) 
Heartbeat CPU  1 instructions:   88000000 cycles:  222634686 heartbeat IPC: 0.15388 cumulative IPC: 0.15255 (Simulation time: 0 hr 11 min 7 sec) 
Heartbeat CPU  2 instructions:   86000000 cycles:  223270017 heartbeat IPC: 0.15051 cumulative IPC: 0.15058 (Simulation time: 0 hr 11 min 8 sec) 
Heartbeat CPU  0 instructions:   85000002 cycles:  223831146 heartbeat IPC: 0.12141 cumulative IPC: 0.15793 (Simulation time: 0 hr 11 min 9 sec) 
Heartbeat CPU  3 instructions:   76000000 cycles:  227292568 heartbeat IPC: 0.19873 cumulative IPC: 0.12685 (Simulation time: 0 hr 11 min 14 sec) 
Heartbeat CPU  1 instructions:   89000000 cycles:  229099780 heartbeat IPC: 0.15468 cumulative IPC: 0.15261 (Simulation time: 0 hr 11 min 17 sec) 
Heartbeat CPU  2 instructions:   87000003 cycles:  229944216 heartbeat IPC: 0.14983 cumulative IPC: 0.15055 (Simulation time: 0 hr 11 min 18 sec) 
Heartbeat CPU  0 instructions:   86000003 cycles:  232033813 heartbeat IPC: 0.12191 cumulative IPC: 0.15652 (Simulation time: 0 hr 11 min 21 sec) 
Heartbeat CPU  3 instructions:   77000002 cycles:  235223944 heartbeat IPC: 0.12608 cumulative IPC: 0.12682 (Simulation time: 0 hr 11 min 26 sec) 
Heartbeat CPU  1 instructions:   90000000 cycles:  235567414 heartbeat IPC: 0.15462 cumulative IPC: 0.15267 (Simulation time: 0 hr 11 min 26 sec) 
Heartbeat CPU  2 instructions:   88000000 cycles:  236573106 heartbeat IPC: 0.15085 cumulative IPC: 0.15056 (Simulation time: 0 hr 11 min 28 sec) 
Heartbeat CPU  0 instructions:   87000000 cycles:  240250566 heartbeat IPC: 0.12170 cumulative IPC: 0.15521 (Simulation time: 0 hr 11 min 33 sec) 
Heartbeat CPU  1 instructions:   91000002 cycles:  242101079 heartbeat IPC: 0.15305 cumulative IPC: 0.15268 (Simulation time: 0 hr 11 min 36 sec) 
Heartbeat CPU  2 instructions:   89000000 cycles:  243237791 heartbeat IPC: 0.15004 cumulative IPC: 0.15055 (Simulation time: 0 hr 11 min 37 sec) 
Heartbeat CPU  3 instructions:   78000000 cycles:  243560804 heartbeat IPC: 0.11995 cumulative IPC: 0.12656 (Simulation time: 0 hr 11 min 38 sec) 
Heartbeat CPU  0 instructions:   88000000 cycles:  248513781 heartbeat IPC: 0.12102 cumulative IPC: 0.15396 (Simulation time: 0 hr 11 min 45 sec) 
Heartbeat CPU  1 instructions:   92000000 cycles:  248641256 heartbeat IPC: 0.15290 cumulative IPC: 0.15269 (Simulation time: 0 hr 11 min 45 sec) 
Heartbeat CPU  2 instructions:   90000000 cycles:  249932940 heartbeat IPC: 0.14936 cumulative IPC: 0.15051 (Simulation time: 0 hr 11 min 47 sec) 
Heartbeat CPU  3 instructions:   79000000 cycles:  251911047 heartbeat IPC: 0.11976 cumulative IPC: 0.12631 (Simulation time: 0 hr 11 min 50 sec) 
Heartbeat CPU  1 instructions:   93000003 cycles:  255135704 heartbeat IPC: 0.15398 cumulative IPC: 0.15273 (Simulation time: 0 hr 11 min 54 sec) 
Heartbeat CPU  2 instructions:   91000000 cycles:  256609596 heartbeat IPC: 0.14978 cumulative IPC: 0.15049 (Simulation time: 0 hr 11 min 56 sec) 
Heartbeat CPU  0 instructions:   89000002 cycles:  256800812 heartbeat IPC: 0.12067 cumulative IPC: 0.15278 (Simulation time: 0 hr 11 min 57 sec) 
Heartbeat CPU  3 instructions:   80000000 cycles:  260303190 heartbeat IPC: 0.11916 cumulative IPC: 0.12606 (Simulation time: 0 hr 12 min 2 sec) 
Heartbeat CPU  1 instructions:   94000003 cycles:  261651757 heartbeat IPC: 0.15347 cumulative IPC: 0.15275 (Simulation time: 0 hr 12 min 4 sec) 
Heartbeat CPU  2 instructions:   92000000 cycles:  263307757 heartbeat IPC: 0.14929 cumulative IPC: 0.15046 (Simulation time: 0 hr 12 min 6 sec) 
Heartbeat CPU  0 instructions:   90000000 cycles:  265352902 heartbeat IPC: 0.11693 cumulative IPC: 0.15152 (Simulation time: 0 hr 12 min 9 sec) 
Heartbeat CPU  1 instructions:   95000002 cycles:  268151426 heartbeat IPC: 0.15385 cumulative IPC: 0.15278 (Simulation time: 0 hr 12 min 13 sec) 
Heartbeat CPU  3 instructions:   81000001 cycles:  268716404 heartbeat IPC: 0.11886 cumulative IPC: 0.12581 (Simulation time: 0 hr 12 min 14 sec) 
Heartbeat CPU  2 instructions:   93000003 cycles:  269996372 heartbeat IPC: 0.14951 cumulative IPC: 0.15043 (Simulation time: 0 hr 12 min 16 sec) 
Heartbeat CPU  0 instructions:   91000003 cycles:  273594805 heartbeat IPC: 0.12133 cumulative IPC: 0.15053 (Simulation time: 0 hr 12 min 21 sec) 
Heartbeat CPU  1 instructions:   96000000 cycles:  274678858 heartbeat IPC: 0.15320 cumulative IPC: 0.15279 (Simulation time: 0 hr 12 min 22 sec) 
Heartbeat CPU  2 instructions:   94000003 cycles:  276705471 heartbeat IPC: 0.14905 cumulative IPC: 0.15039 (Simulation time: 0 hr 12 min 25 sec) 
Heartbeat CPU  3 instructions:   82000000 cycles:  277128700 heartbeat IPC: 0.11887 cumulative IPC: 0.12559 (Simulation time: 0 hr 12 min 26 sec) 
Heartbeat CPU  1 instructions:   97000000 cycles:  281192958 heartbeat IPC: 0.15351 cumulative IPC: 0.15281 (Simulation time: 0 hr 12 min 32 sec) 
Heartbeat CPU  0 instructions:   92000000 cycles:  281904663 heartbeat IPC: 0.12034 cumulative IPC: 0.14956 (Simulation time: 0 hr 12 min 33 sec) 
Heartbeat CPU  2 instructions:   95000000 cycles:  283465853 heartbeat IPC: 0.14792 cumulative IPC: 0.15033 (Simulation time: 0 hr 12 min 35 sec) 
Heartbeat CPU  3 instructions:   83000002 cycles:  285546678 heartbeat IPC: 0.11879 cumulative IPC: 0.12537 (Simulation time: 0 hr 12 min 38 sec) 
Heartbeat CPU  1 instructions:   98000000 cycles:  287714843 heartbeat IPC: 0.15333 cumulative IPC: 0.15282 (Simulation time: 0 hr 12 min 41 sec) 
Heartbeat CPU  2 instructions:   96000000 cycles:  290193289 heartbeat IPC: 0.14865 cumulative IPC: 0.15029 (Simulation time: 0 hr 12 min 44 sec) 
Heartbeat CPU  0 instructions:   93000003 cycles:  290221350 heartbeat IPC: 0.12024 cumulative IPC: 0.14865 (Simulation time: 0 hr 12 min 44 sec) 
Heartbeat CPU  3 instructions:   84000000 cycles:  294000428 heartbeat IPC: 0.11829 cumulative IPC: 0.12515 (Simulation time: 0 hr 12 min 50 sec) 
Heartbeat CPU  1 instructions:   99000001 cycles:  294194999 heartbeat IPC: 0.15432 cumulative IPC: 0.15285 (Simulation time: 0 hr 12 min 50 sec) 
Heartbeat CPU  2 instructions:   97000002 cycles:  296911789 heartbeat IPC: 0.14884 cumulative IPC: 0.15025 (Simulation time: 0 hr 12 min 54 sec) 
Heartbeat CPU  0 instructions:   94000000 cycles:  297040253 heartbeat IPC: 0.14665 cumulative IPC: 0.14860 (Simulation time: 0 hr 12 min 54 sec) 
*** Reached end of trace for Core: 1 Repeating trace: /data3/CLOUD9/traces/cloud9_phase1_core1.trace.xz
Heartbeat CPU  1 instructions:  100000000 cycles:  300680460 heartbeat IPC: 0.15419 cumulative IPC: 0.15288 (Simulation time: 0 hr 13 min 0 sec) 
Heartbeat CPU  0 instructions:   95000000 cycles:  301677720 heartbeat IPC: 0.21563 cumulative IPC: 0.14972 (Simulation time: 0 hr 13 min 2 sec) 
Heartbeat CPU  3 instructions:   85000000 cycles:  302446252 heartbeat IPC: 0.11840 cumulative IPC: 0.12494 (Simulation time: 0 hr 13 min 3 sec) 
Heartbeat CPU  2 instructions:   98000001 cycles:  303623802 heartbeat IPC: 0.14899 cumulative IPC: 0.15022 (Simulation time: 0 hr 13 min 5 sec) 
Heartbeat CPU  1 instructions:  101000000 cycles:  307251318 heartbeat IPC: 0.15219 cumulative IPC: 0.15287 (Simulation time: 0 hr 13 min 10 sec) 
Heartbeat CPU  0 instructions:   96000000 cycles:  308253812 heartbeat IPC: 0.15207 cumulative IPC: 0.14977 (Simulation time: 0 hr 13 min 12 sec) 
Heartbeat CPU  2 instructions:   99000003 cycles:  310313173 heartbeat IPC: 0.14949 cumulative IPC: 0.15021 (Simulation time: 0 hr 13 min 15 sec) 
Heartbeat CPU  3 instructions:   86000000 cycles:  311167558 heartbeat IPC: 0.11466 cumulative IPC: 0.12463 (Simulation time: 0 hr 13 min 16 sec) 
Heartbeat CPU  1 instructions:  102000000 cycles:  313809848 heartbeat IPC: 0.15247 cumulative IPC: 0.15286 (Simulation time: 0 hr 13 min 20 sec) 
Heartbeat CPU  0 instructions:   97000001 cycles:  316547649 heartbeat IPC: 0.12057 cumulative IPC: 0.14895 (Simulation time: 0 hr 13 min 23 sec) 
*** Reached end of trace for Core: 2 Repeating trace: /data3/CLOUD9/traces/cloud9_phase1_core2.trace.xz
Heartbeat CPU  2 instructions:  100000000 cycles:  317034255 heartbeat IPC: 0.14879 cumulative IPC: 0.15017 (Simulation time: 0 hr 13 min 24 sec) 
Heartbeat CPU  3 instructions:   87000001 cycles:  319652646 heartbeat IPC: 0.11785 cumulative IPC: 0.12444 (Simulation time: 0 hr 13 min 28 sec) 
Heartbeat CPU  1 instructions:  103000000 cycles:  320348750 heartbeat IPC: 0.15293 cumulative IPC: 0.15286 (Simulation time: 0 hr 13 min 29 sec) 
Heartbeat CPU  2 instructions:  101000002 cycles:  323418312 heartbeat IPC: 0.15664 cumulative IPC: 0.15031 (Simulation time: 0 hr 13 min 33 sec) 
Heartbeat CPU  0 instructions:   98000001 cycles:  324812969 heartbeat IPC: 0.12099 cumulative IPC: 0.14818 (Simulation time: 0 hr 13 min 35 sec) 
Heartbeat CPU  1 instructions:  104000000 cycles:  326893803 heartbeat IPC: 0.15279 cumulative IPC: 0.15286 (Simulation time: 0 hr 13 min 38 sec) 
Heartbeat CPU  3 instructions:   88000000 cycles:  328139113 heartbeat IPC: 0.11783 cumulative IPC: 0.12426 (Simulation time: 0 hr 13 min 40 sec) 
Heartbeat CPU  2 instructions:  102000002 cycles:  329800225 heartbeat IPC: 0.15669 cumulative IPC: 0.15044 (Simulation time: 0 hr 13 min 42 sec) 
Heartbeat CPU  0 instructions:   99000000 cycles:  333138046 heartbeat IPC: 0.12012 cumulative IPC: 0.14743 (Simulation time: 0 hr 13 min 47 sec) 
Heartbeat CPU  1 instructions:  105000000 cycles:  333425762 heartbeat IPC: 0.15309 cumulative IPC: 0.15286 (Simulation time: 0 hr 13 min 48 sec) 
Heartbeat CPU  3 instructions:   89000000 cycles:  335733967 heartbeat IPC: 0.13167 cumulative IPC: 0.12444 (Simulation time: 0 hr 13 min 51 sec) 
Heartbeat CPU  2 instructions:  103000000 cycles:  336181888 heartbeat IPC: 0.15670 cumulative IPC: 0.15057 (Simulation time: 0 hr 13 min 52 sec) 
Heartbeat CPU  1 instructions:  106000003 cycles:  339980379 heartbeat IPC: 0.15256 cumulative IPC: 0.15286 (Simulation time: 0 hr 13 min 58 sec) 
Heartbeat CPU  3 instructions:   90000002 cycles:  340513165 heartbeat IPC: 0.20924 cumulative IPC: 0.12571 (Simulation time: 0 hr 13 min 59 sec) 
*** Reached end of trace for Core: 0 Repeating trace: /data3/CLOUD9/traces/cloud9_phase1_core0.trace.xz
Heartbeat CPU  0 instructions:  100000000 cycles:  341480516 heartbeat IPC: 0.11987 cumulative IPC: 0.14671 (Simulation time: 0 hr 14 min 1 sec) 
Heartbeat CPU  2 instructions:  104000000 cycles:  342598138 heartbeat IPC: 0.15585 cumulative IPC: 0.15068 (Simulation time: 0 hr 14 min 3 sec) 
Heartbeat CPU  0 instructions:  101000002 cycles:  346261526 heartbeat IPC: 0.20916 cumulative IPC: 0.14763 (Simulation time: 0 hr 14 min 9 sec) 
Heartbeat CPU  1 instructions:  107000002 cycles:  346533145 heartbeat IPC: 0.15261 cumulative IPC: 0.15285 (Simulation time: 0 hr 14 min 10 sec) 
Heartbeat CPU  3 instructions:   91000000 cycles:  346541725 heartbeat IPC: 0.16588 cumulative IPC: 0.12646 (Simulation time: 0 hr 14 min 10 sec) 
Heartbeat CPU  2 instructions:  105000001 cycles:  349097833 heartbeat IPC: 0.15385 cumulative IPC: 0.15074 (Simulation time: 0 hr 14 min 14 sec) 
Heartbeat CPU  0 instructions:  102000000 cycles:  350570893 heartbeat IPC: 0.23205 cumulative IPC: 0.14874 (Simulation time: 0 hr 14 min 17 sec) 
Heartbeat CPU  1 instructions:  108000000 cycles:  353094625 heartbeat IPC: 0.15240 cumulative IPC: 0.15284 (Simulation time: 0 hr 14 min 21 sec) 
Heartbeat CPU  3 instructions:   92000000 cycles:  354894690 heartbeat IPC: 0.11972 cumulative IPC: 0.12629 (Simulation time: 0 hr 14 min 24 sec) 
Heartbeat CPU  0 instructions:  103000001 cycles:  354992459 heartbeat IPC: 0.22616 cumulative IPC: 0.14977 (Simulation time: 0 hr 14 min 24 sec) 
Heartbeat CPU  2 instructions:  106000003 cycles:  355553844 heartbeat IPC: 0.15489 cumulative IPC: 0.15082 (Simulation time: 0 hr 14 min 25 sec) 
Heartbeat CPU  1 instructions:  109000003 cycles:  359649497 heartbeat IPC: 0.15256 cumulative IPC: 0.15284 (Simulation time: 0 hr 14 min 32 sec) 
Heartbeat CPU  0 instructions:  104000000 cycles:  359649928 heartbeat IPC: 0.21471 cumulative IPC: 0.15067 (Simulation time: 0 hr 14 min 32 sec) 
Heartbeat CPU  2 instructions:  107000003 cycles:  362041333 heartbeat IPC: 0.15414 cumulative IPC: 0.15088 (Simulation time: 0 hr 14 min 36 sec) 
Heartbeat CPU  3 instructions:   93000001 cycles:  363276203 heartbeat IPC: 0.11931 cumulative IPC: 0.12612 (Simulation time: 0 hr 14 min 38 sec) 
Heartbeat CPU  0 instructions:  105000000 cycles:  364478117 heartbeat IPC: 0.20712 cumulative IPC: 0.15146 (Simulation time: 0 hr 14 min 40 sec) 
Heartbeat CPU  1 instructions:  110000001 cycles:  366227505 heartbeat IPC: 0.15202 cumulative IPC: 0.15282 (Simulation time: 0 hr 14 min 43 sec) 
Heartbeat CPU  2 instructions:  108000000 cycles:  368488922 heartbeat IPC: 0.15510 cumulative IPC: 0.15096 (Simulation time: 0 hr 14 min 46 sec) 
Heartbeat CPU  0 instructions:  106000003 cycles:  369957987 heartbeat IPC: 0.18249 cumulative IPC: 0.15195 (Simulation time: 0 hr 14 min 49 sec) 
Heartbeat CPU  3 instructions:   94000001 cycles:  371632603 heartbeat IPC: 0.11967 cumulative IPC: 0.12596 (Simulation time: 0 hr 14 min 51 sec) 
Heartbeat CPU  1 instructions:  111000001 cycles:  372793311 heartbeat IPC: 0.15230 cumulative IPC: 0.15281 (Simulation time: 0 hr 14 min 53 sec) 
Heartbeat CPU  2 instructions:  109000001 cycles:  374960366 heartbeat IPC: 0.15453 cumulative IPC: 0.15103 (Simulation time: 0 hr 14 min 57 sec) 
Heartbeat CPU  0 instructions:  107000003 cycles:  376266960 heartbeat IPC: 0.15850 cumulative IPC: 0.15207 (Simulation time: 0 hr 14 min 59 sec) 
Heartbeat CPU  1 instructions:  112000000 cycles:  379342187 heartbeat IPC: 0.15270 cumulative IPC: 0.15281 (Simulation time: 0 hr 15 min 3 sec) 
Heartbeat CPU  3 instructions:   95000000 cycles:  380053885 heartbeat IPC: 0.11875 cumulative IPC: 0.12579 (Simulation time: 0 hr 15 min 4 sec) 
Heartbeat CPU  2 instructions:  110000000 cycles:  381402379 heartbeat IPC: 0.15523 cumulative IPC: 0.15110 (Simulation time: 0 hr 15 min 6 sec) 
Heartbeat CPU  0 instructions:  108000000 cycles:  382462909 heartbeat IPC: 0.16140 cumulative IPC: 0.15223 (Simulation time: 0 hr 15 min 8 sec) 
Heartbeat CPU  1 instructions:  113000001 cycles:  385909859 heartbeat IPC: 0.15226 cumulative IPC: 0.15280 (Simulation time: 0 hr 15 min 13 sec) 
Heartbeat CPU  2 instructions:  111000002 cycles:  387889042 heartbeat IPC: 0.15416 cumulative IPC: 0.15116 (Simulation time: 0 hr 15 min 16 sec) 
Heartbeat CPU  3 instructions:   96000000 cycles:  388481876 heartbeat IPC: 0.11865 cumulative IPC: 0.12563 (Simulation time: 0 hr 15 min 17 sec) 
Heartbeat CPU  0 instructions:  109000002 cycles:  388487255 heartbeat IPC: 0.16599 cumulative IPC: 0.15246 (Simulation time: 0 hr 15 min 17 sec) 
Heartbeat CPU  1 instructions:  114000001 cycles:  392481067 heartbeat IPC: 0.15218 cumulative IPC: 0.15279 (Simulation time: 0 hr 15 min 23 sec) 
Heartbeat CPU  0 instructions:  110000000 cycles:  394280095 heartbeat IPC: 0.17263 cumulative IPC: 0.15277 (Simulation time: 0 hr 15 min 26 sec) 
Heartbeat CPU  2 instructions:  112000000 cycles:  394375508 heartbeat IPC: 0.15417 cumulative IPC: 0.15121 (Simulation time: 0 hr 15 min 26 sec) 
Heartbeat CPU  3 instructions:   97000000 cycles:  396911517 heartbeat IPC: 0.11863 cumulative IPC: 0.12547 (Simulation time: 0 hr 15 min 30 sec) 
Heartbeat CPU  1 instructions:  115000003 cycles:  399044546 heartbeat IPC: 0.15236 cumulative IPC: 0.15278 (Simulation time: 0 hr 15 min 34 sec) 
Heartbeat CPU  0 instructions:  111000002 cycles:  400275941 heartbeat IPC: 0.16678 cumulative IPC: 0.15299 (Simulation time: 0 hr 15 min 35 sec) 
Heartbeat CPU  2 instructions:  113000000 cycles:  400847364 heartbeat IPC: 0.15452 cumulative IPC: 0.15127 (Simulation time: 0 hr 15 min 36 sec) 
Heartbeat CPU  3 instructions:   98000000 cycles:  405386388 heartbeat IPC: 0.11800 cumulative IPC: 0.12531 (Simulation time: 0 hr 15 min 44 sec) 
Heartbeat CPU  1 instructions:  116000000 cycles:  405597486 heartbeat IPC: 0.15260 cumulative IPC: 0.15278 (Simulation time: 0 hr 15 min 44 sec) 
Heartbeat CPU  0 instructions:  112000000 cycles:  405645766 heartbeat IPC: 0.18623 cumulative IPC: 0.15346 (Simulation time: 0 hr 15 min 44 sec) 
Heartbeat CPU  2 instructions:  114000002 cycles:  407372369 heartbeat IPC: 0.15326 cumulative IPC: 0.15130 (Simulation time: 0 hr 15 min 47 sec) 
Heartbeat CPU  0 instructions:  113000001 cycles:  410596096 heartbeat IPC: 0.20201 cumulative IPC: 0.15408 (Simulation time: 0 hr 15 min 52 sec) 
Heartbeat CPU  1 instructions:  117000001 cycles:  412160573 heartbeat IPC: 0.15237 cumulative IPC: 0.15277 (Simulation time: 0 hr 15 min 55 sec) 
Heartbeat CPU  2 instructions:  115000003 cycles:  413864503 heartbeat IPC: 0.15403 cumulative IPC: 0.15134 (Simulation time: 0 hr 15 min 57 sec) 
Heartbeat CPU  3 instructions:   99000001 cycles:  413903390 heartbeat IPC: 0.11741 cumulative IPC: 0.12513 (Simulation time: 0 hr 15 min 58 sec) 
Heartbeat CPU  0 instructions:  114000000 cycles:  415982970 heartbeat IPC: 0.18564 cumulative IPC: 0.15451 (Simulation time: 0 hr 16 min 1 sec) 
Heartbeat CPU  1 instructions:  118000000 cycles:  418711173 heartbeat IPC: 0.15266 cumulative IPC: 0.15277 (Simulation time: 0 hr 16 min 5 sec) 
Heartbeat CPU  2 instructions:  116000000 cycles:  420344397 heartbeat IPC: 0.15432 cumulative IPC: 0.15139 (Simulation time: 0 hr 16 min 8 sec) 
Heartbeat CPU  0 instructions:  115000003 cycles:  421438382 heartbeat IPC: 0.18330 cumulative IPC: 0.15490 (Simulation time: 0 hr 16 min 10 sec) 
*** Reached end of trace for Core: 3 Repeating trace: /data3/CLOUD9/traces/cloud9_phase1_core3.trace.xz
Heartbeat CPU  3 instructions:  100000000 cycles:  422361835 heartbeat IPC: 0.11822 cumulative IPC: 0.12499 (Simulation time: 0 hr 16 min 11 sec) 
Heartbeat CPU  1 instructions:  119000000 cycles:  425283884 heartbeat IPC: 0.15214 cumulative IPC: 0.15276 (Simulation time: 0 hr 16 min 16 sec) 
Heartbeat CPU  2 instructions:  117000000 cycles:  426821354 heartbeat IPC: 0.15439 cumulative IPC: 0.15144 (Simulation time: 0 hr 16 min 18 sec) 
Heartbeat CPU  0 instructions:  116000000 cycles:  427024366 heartbeat IPC: 0.17902 cumulative IPC: 0.15523 (Simulation time: 0 hr 16 min 19 sec) 
Heartbeat CPU  3 instructions:  101000000 cycles:  430101588 heartbeat IPC: 0.12920 cumulative IPC: 0.12507 (Simulation time: 0 hr 16 min 23 sec) 
Heartbeat CPU  1 instructions:  120000000 cycles:  431882863 heartbeat IPC: 0.15154 cumulative IPC: 0.15274 (Simulation time: 0 hr 16 min 26 sec) 
Heartbeat CPU  0 instructions:  117000002 cycles:  433016957 heartbeat IPC: 0.16687 cumulative IPC: 0.15540 (Simulation time: 0 hr 16 min 28 sec) 
Heartbeat CPU  2 instructions:  118000001 cycles:  433297910 heartbeat IPC: 0.15440 cumulative IPC: 0.15149 (Simulation time: 0 hr 16 min 28 sec) 
Heartbeat CPU  3 instructions:  102000002 cycles:  438237296 heartbeat IPC: 0.12292 cumulative IPC: 0.12503 (Simulation time: 0 hr 16 min 36 sec) 
Heartbeat CPU  1 instructions:  121000002 cycles:  438468145 heartbeat IPC: 0.15185 cumulative IPC: 0.15273 (Simulation time: 0 hr 16 min 36 sec) 
Heartbeat CPU  2 instructions:  119000003 cycles:  439769581 heartbeat IPC: 0.15452 cumulative IPC: 0.15153 (Simulation time: 0 hr 16 min 38 sec) 
Heartbeat CPU  0 instructions:  118000000 cycles:  440392793 heartbeat IPC: 0.13558 cumulative IPC: 0.15505 (Simulation time: 0 hr 16 min 39 sec) 
Heartbeat CPU  1 instructions:  122000002 cycles:  445068874 heartbeat IPC: 0.15150 cumulative IPC: 0.15271 (Simulation time: 0 hr 16 min 46 sec) 
Heartbeat CPU  2 instructions:  120000000 cycles:  446215536 heartbeat IPC: 0.15514 cumulative IPC: 0.15159 (Simulation time: 0 hr 16 min 48 sec) 
Heartbeat CPU  3 instructions:  103000000 cycles:  446349736 heartbeat IPC: 0.12327 cumulative IPC: 0.12499 (Simulation time: 0 hr 16 min 48 sec) 
Heartbeat CPU  0 instructions:  119000001 cycles:  448034977 heartbeat IPC: 0.13085 cumulative IPC: 0.15462 (Simulation time: 0 hr 16 min 51 sec) 
Heartbeat CPU  1 instructions:  123000003 cycles:  451660996 heartbeat IPC: 0.15170 cumulative IPC: 0.15269 (Simulation time: 0 hr 16 min 56 sec) 
Heartbeat CPU  2 instructions:  121000003 cycles:  452685294 heartbeat IPC: 0.15457 cumulative IPC: 0.15163 (Simulation time: 0 hr 16 min 58 sec) 
Heartbeat CPU  3 instructions:  104000000 cycles:  454531991 heartbeat IPC: 0.12222 cumulative IPC: 0.12494 (Simulation time: 0 hr 17 min 0 sec) 
Heartbeat CPU  0 instructions:  120000000 cycles:  456229416 heartbeat IPC: 0.12203 cumulative IPC: 0.15400 (Simulation time: 0 hr 17 min 3 sec) 
Heartbeat CPU  1 instructions:  124000000 cycles:  458304212 heartbeat IPC: 0.15053 cumulative IPC: 0.15266 (Simulation time: 0 hr 17 min 6 sec) 
Heartbeat CPU  2 instructions:  122000002 cycles:  459111055 heartbeat IPC: 0.15562 cumulative IPC: 0.15169 (Simulation time: 0 hr 17 min 7 sec) 
Heartbeat CPU  3 instructions:  105000000 cycles:  462738880 heartbeat IPC: 0.12185 cumulative IPC: 0.12488 (Simulation time: 0 hr 17 min 13 sec) 
Heartbeat CPU  0 instructions:  121000001 cycles:  464326828 heartbeat IPC: 0.12350 cumulative IPC: 0.15345 (Simulation time: 0 hr 17 min 15 sec) 
Heartbeat CPU  1 instructions:  125000001 cycles:  464926657 heartbeat IPC: 0.15100 cumulative IPC: 0.15263 (Simulation time: 0 hr 17 min 16 sec) 
Heartbeat CPU  2 instructions:  123000001 cycles:  465564889 heartbeat IPC: 0.15495 cumulative IPC: 0.15174 (Simulation time: 0 hr 17 min 17 sec) 
Heartbeat CPU  3 instructions:  106000001 cycles:  470989652 heartbeat IPC: 0.12120 cumulative IPC: 0.12481 (Simulation time: 0 hr 17 min 25 sec) 
Heartbeat CPU  1 instructions:  126000002 cycles:  471603815 heartbeat IPC: 0.14976 cumulative IPC: 0.15259 (Simulation time: 0 hr 17 min 26 sec) 
Heartbeat CPU  2 instructions:  124000000 cycles:  472019761 heartbeat IPC: 0.15492 cumulative IPC: 0.15179 (Simulation time: 0 hr 17 min 26 sec) 
Heartbeat CPU  0 instructions:  122000002 cycles:  472376431 heartbeat IPC: 0.12423 cumulative IPC: 0.15292 (Simulation time: 0 hr 17 min 27 sec) 
Heartbeat CPU  1 instructions:  127000003 cycles:  478233661 heartbeat IPC: 0.15083 cumulative IPC: 0.15257 (Simulation time: 0 hr 17 min 36 sec) 
Heartbeat CPU  2 instructions:  125000003 cycles:  478450935 heartbeat IPC: 0.15549 cumulative IPC: 0.15184 (Simulation time: 0 hr 17 min 36 sec) 
Heartbeat CPU  3 instructions:  107000002 cycles:  479182336 heartbeat IPC: 0.12206 cumulative IPC: 0.12476 (Simulation time: 0 hr 17 min 37 sec) 
Heartbeat CPU  0 instructions:  123000002 cycles:  480414840 heartbeat IPC: 0.12440 cumulative IPC: 0.15242 (Simulation time: 0 hr 17 min 39 sec) 
Heartbeat CPU  1 instructions:  128000000 cycles:  484796263 heartbeat IPC: 0.15238 cumulative IPC: 0.15256 (Simulation time: 0 hr 17 min 45 sec) 
Heartbeat CPU  2 instructions:  126000001 cycles:  484909169 heartbeat IPC: 0.15484 cumulative IPC: 0.15188 (Simulation time: 0 hr 17 min 45 sec) 
Heartbeat CPU  3 instructions:  108000000 cycles:  487384667 heartbeat IPC: 0.12192 cumulative IPC: 0.12471 (Simulation time: 0 hr 17 min 49 sec) 
Heartbeat CPU  0 instructions:  124000000 cycles:  488494206 heartbeat IPC: 0.12377 cumulative IPC: 0.15193 (Simulation time: 0 hr 17 min 51 sec) 
Heartbeat CPU  1 instructions:  129000000 cycles:  491059518 heartbeat IPC: 0.15966 cumulative IPC: 0.15266 (Simulation time: 0 hr 17 min 55 sec) 
Heartbeat CPU  2 instructions:  127000003 cycles:  491361227 heartbeat IPC: 0.15499 cumulative IPC: 0.15192 (Simulation time: 0 hr 17 min 55 sec) 
Heartbeat CPU  3 instructions:  109000000 cycles:  495645453 heartbeat IPC: 0.12105 cumulative IPC: 0.12465 (Simulation time: 0 hr 18 min 2 sec) 
Heartbeat CPU  0 instructions:  125000000 cycles:  496107380 heartbeat IPC: 0.13135 cumulative IPC: 0.15160 (Simulation time: 0 hr 18 min 2 sec) 
Heartbeat CPU  1 instructions:  130000000 cycles:  497283229 heartbeat IPC: 0.16068 cumulative IPC: 0.15276 (Simulation time: 0 hr 18 min 4 sec) 
Heartbeat CPU  2 instructions:  128000000 cycles:  497806281 heartbeat IPC: 0.15516 cumulative IPC: 0.15197 (Simulation time: 0 hr 18 min 5 sec) 
Heartbeat CPU  0 instructions:  126000003 cycles:  503557040 heartbeat IPC: 0.13423 cumulative IPC: 0.15133 (Simulation time: 0 hr 18 min 13 sec) 
Heartbeat CPU  1 instructions:  131000000 cycles:  503564296 heartbeat IPC: 0.15921 cumulative IPC: 0.15285 (Simulation time: 0 hr 18 min 14 sec) 
Heartbeat CPU  3 instructions:  110000001 cycles:  503916495 heartbeat IPC: 0.12090 cumulative IPC: 0.12459 (Simulation time: 0 hr 18 min 14 sec) 
Heartbeat CPU  2 instructions:  129000000 cycles:  504299584 heartbeat IPC: 0.15400 cumulative IPC: 0.15199 (Simulation time: 0 hr 18 min 15 sec) 
Heartbeat CPU  1 instructions:  132000000 cycles:  509785673 heartbeat IPC: 0.16074 cumulative IPC: 0.15295 (Simulation time: 0 hr 18 min 23 sec) 
Heartbeat CPU  0 instructions:  127000001 cycles:  510579214 heartbeat IPC: 0.14241 cumulative IPC: 0.15120 (Simulation time: 0 hr 18 min 24 sec) 
Heartbeat CPU  2 instructions:  130000000 cycles:  510758207 heartbeat IPC: 0.15483 cumulative IPC: 0.15203 (Simulation time: 0 hr 18 min 24 sec) 
Heartbeat CPU  3 instructions:  111000000 cycles:  512159449 heartbeat IPC: 0.12132 cumulative IPC: 0.12453 (Simulation time: 0 hr 18 min 27 sec) 
Heartbeat CPU  1 instructions:  133000000 cycles:  516085862 heartbeat IPC: 0.15873 cumulative IPC: 0.15302 (Simulation time: 0 hr 18 min 33 sec) 
Heartbeat CPU  2 instructions:  131000003 cycles:  517227684 heartbeat IPC: 0.15457 cumulative IPC: 0.15206 (Simulation time: 0 hr 18 min 34 sec) 
Heartbeat CPU  0 instructions:  128000000 cycles:  517686193 heartbeat IPC: 0.14071 cumulative IPC: 0.15105 (Simulation time: 0 hr 18 min 35 sec) 
Heartbeat CPU  3 instructions:  112000000 cycles:  520790219 heartbeat IPC: 0.11586 cumulative IPC: 0.12438 (Simulation time: 0 hr 18 min 40 sec) 
Heartbeat CPU  1 instructions:  134000002 cycles:  522335335 heartbeat IPC: 0.16001 cumulative IPC: 0.15311 (Simulation time: 0 hr 18 min 42 sec) 
Heartbeat CPU  2 instructions:  132000000 cycles:  523687265 heartbeat IPC: 0.15481 cumulative IPC: 0.15210 (Simulation time: 0 hr 18 min 44 sec) 
Heartbeat CPU  0 instructions:  129000003 cycles:  524597633 heartbeat IPC: 0.14469 cumulative IPC: 0.15096 (Simulation time: 0 hr 18 min 46 sec) 
Heartbeat CPU  1 instructions:  135000002 cycles:  528557633 heartbeat IPC: 0.16071 cumulative IPC: 0.15320 (Simulation time: 0 hr 18 min 52 sec) 
Heartbeat CPU  3 instructions:  113000003 cycles:  529019398 heartbeat IPC: 0.12152 cumulative IPC: 0.12433 (Simulation time: 0 hr 18 min 52 sec) 
Heartbeat CPU  2 instructions:  133000001 cycles:  530155648 heartbeat IPC: 0.15460 cumulative IPC: 0.15213 (Simulation time: 0 hr 18 min 54 sec) 
Heartbeat CPU  0 instructions:  130000001 cycles:  531701583 heartbeat IPC: 0.14077 cumulative IPC: 0.15082 (Simulation time: 0 hr 18 min 57 sec) 
Heartbeat CPU  1 instructions:  136000000 cycles:  534822439 heartbeat IPC: 0.15962 cumulative IPC: 0.15328 (Simulation time: 0 hr 19 min 1 sec) 
Heartbeat CPU  2 instructions:  134000002 cycles:  536598630 heartbeat IPC: 0.15521 cumulative IPC: 0.15217 (Simulation time: 0 hr 19 min 4 sec) 
Heartbeat CPU  3 instructions:  114000003 cycles:  537326662 heartbeat IPC: 0.12038 cumulative IPC: 0.12427 (Simulation time: 0 hr 19 min 5 sec) 
Heartbeat CPU  0 instructions:  131000000 cycles:  538376424 heartbeat IPC: 0.14982 cumulative IPC: 0.15081 (Simulation time: 0 hr 19 min 7 sec) 
Heartbeat CPU  1 instructions:  137000003 cycles:  541125511 heartbeat IPC: 0.15865 cumulative IPC: 0.15335 (Simulation time: 0 hr 19 min 11 sec) 
Heartbeat CPU  2 instructions:  135000001 cycles:  543069971 heartbeat IPC: 0.15453 cumulative IPC: 0.15220 (Simulation time: 0 hr 19 min 14 sec) 
Heartbeat CPU  0 instructions:  132000000 cycles:  544847942 heartbeat IPC: 0.15452 cumulative IPC: 0.15085 (Simulation time: 0 hr 19 min 17 sec) 
Heartbeat CPU  3 instructions:  115000000 cycles:  545664578 heartbeat IPC: 0.11993 cumulative IPC: 0.12420 (Simulation time: 0 hr 19 min 18 sec) 
Heartbeat CPU  1 instructions:  138000002 cycles:  547392191 heartbeat IPC: 0.15957 cumulative IPC: 0.15342 (Simulation time: 0 hr 19 min 21 sec) 
Heartbeat CPU  2 instructions:  136000000 cycles:  549512923 heartbeat IPC: 0.15521 cumulative IPC: 0.15224 (Simulation time: 0 hr 19 min 24 sec) 
Heartbeat CPU  0 instructions:  133000001 cycles:  551293373 heartbeat IPC: 0.15515 cumulative IPC: 0.15090 (Simulation time: 0 hr 19 min 27 sec) 
[...]
Core_0_LLC_acc_level_0 909342
Core_0_LLC_acc_level_1 97264
Core_0_LLC_acc_level_2 62408
Core_0_LLC_acc_level_3 28243
Core_0_LLC_acc_level_4 10285
Core_0_LLC_acc_level_5 38220
Core_0_LLC_acc_level_6 8004
Core_0_LLC_acc_level_7 8367
Core_0_LLC_acc_level_8 3339
Core_0_LLC_acc_level_9 26410

Core_0_major_page_fault 0
Core_0_minor_page_fault 6473

Core_1_instructions 150000001
Core_1_cycles 974774681
Core_1_IPC 0.15388

Core_1_branch_prediction_accuracy 99.78196
Core_1_branch_MPKI 0.45631
Core_1_average_ROB_occupancy_at_mispredict 237.52141

Core_1_L1D_total_access 22696208
Core_1_L1D_total_hit 22382581
Core_1_L1D_total_miss 313627
Core_1_L1D_loads 13644565
Core_1_L1D_load_hit 13334435
Core_1_L1D_load_miss 310130
Core_1_L1D_RFOs 9051643
Core_1_L1D_RFO_hit 9048146
Core_1_L1D_RFO_miss 3497
Core_1_L1D_prefetches 0
Core_1_L1D_prefetch_hit 0
Core_1_L1D_prefetch_miss 0
Core_1_L1D_writebacks 0
Core_1_L1D_writeback_hit 0
Core_1_L1D_writeback_miss 0
Core_1_L1D_prefetch_requested 0
Core_1_L1D_prefetch_dropped 0
Core_1_L1D_prefetch_issued 0
Core_1_L1D_prefetch_filled 0
Core_1_L1D_prefetch_useful 0
Core_1_L1D_prefetch_useless 0
Core_1_L1D_prefetch_late 0
Core_1_L1D_average_miss_latency 131.45413

Core_1_L1D_rq_access 24593304
Core_1_L1D_rq_forward 0
Core_1_L1D_rq_merged 7820406
Core_1_L1D_rq_to_cache 16772889
Core_1_L1D_rq_full 0

Core_1_L1D_wq_access 11313535
Core_1_L1D_wq_forward 9
Core_1_L1D_wq_merged 159164
Core_1_L1D_wq_to_cache 11154371
Core_1_L1D_wq_full 0

Core_1_L1D_pq_access 0
Core_1_L1D_pq_forward 0
Core_1_L1D_pq_merged 0
Core_1_L1D_pq_to_cache 0
Core_1_L1D_pq_full 0

Core_1_L1D_acc_epochs 175492
Core_1_L1D_acc_level_0 175492
Core_1_L1D_acc_level_1 0
Core_1_L1D_acc_level_2 0
Core_1_L1D_acc_level_3 0
Core_1_L1D_acc_level_4 0
Core_1_L1D_acc_level_5 0
Core_1_L1D_acc_level_6 0
Core_1_L1D_acc_level_7 0
Core_1_L1D_acc_level_8 0
Core_1_L1D_acc_level_9 0

Core_1_L1I_total_access 42818482
Core_1_L1I_total_hit 42818422
Core_1_L1I_total_miss 60
Core_1_L1I_loads 42818482
Core_1_L1I_load_hit 42818422
Core_1_L1I_load_miss 60
Core_1_L1I_RFOs 0
Core_1_L1I_RFO_hit 0
Core_1_L1I_RFO_miss 0
Core_1_L1I_prefetches 0
Core_1_L1I_prefetch_hit 0
Core_1_L1I_prefetch_miss 0
Core_1_L1I_writebacks 0
Core_1_L1I_writeback_hit 0
Core_1_L1I_writeback_miss 0
Core_1_L1I_prefetch_requested 0
Core_1_L1I_prefetch_dropped 0
Core_1_L1I_prefetch_issued 0
Core_1_L1I_prefetch_filled 0
Core_1_L1I_prefetch_useful 0
Core_1_L1I_prefetch_useless 0
Core_1_L1I_prefetch_late 0
Core_1_L1I_average_miss_latency 234.50000

Core_1_L1I_rq_access 184618038
Core_1_L1I_rq_forward 0
Core_1_L1I_rq_merged 131926745
Core_1_L1I_rq_to_cache 52691293
Core_1_L1I_rq_full 0

Core_1_L1I_wq_access 0
Core_1_L1I_wq_forward 0
Core_1_L1I_wq_merged 0
Core_1_L1I_wq_to_cache 0
Core_1_L1I_wq_full 0

Core_1_L1I_pq_access 0
Core_1_L1I_pq_forward 0
Core_1_L1I_pq_merged 0
Core_1_L1I_pq_to_cache 0
Core_1_L1I_pq_full 0

Core_1_L1I_acc_epochs 175492
Core_1_L1I_acc_level_0 175492
Core_1_L1I_acc_level_1 0
Core_1_L1I_acc_level_2 0
Core_1_L1I_acc_level_3 0
Core_1_L1I_acc_level_4 0
Core_1_L1I_acc_level_5 0
Core_1_L1I_acc_level_6 0
Core_1_L1I_acc_level_7 0
Core_1_L1I_acc_level_8 0
Core_1_L1I_acc_level_9 0

Core_1_L2C_total_access 744474
Core_1_L2C_total_hit 423736
Core_1_L2C_total_miss 320738
Core_1_L2C_loads 310190
Core_1_L2C_load_hit 169726
Core_1_L2C_load_miss 140464
Core_1_L2C_RFOs 3497
Core_1_L2C_RFO_hit 607
Core_1_L2C_RFO_miss 2890
Core_1_L2C_prefetches 267473
Core_1_L2C_prefetch_hit 90172
Core_1_L2C_prefetch_miss 177301
Core_1_L2C_writebacks 163314
Core_1_L2C_writeback_hit 163231
Core_1_L2C_writeback_miss 83
Core_1_L2C_prefetch_requested 1740786
Core_1_L2C_prefetch_dropped 0
Core_1_L2C_prefetch_issued 1740786
Core_1_L2C_prefetch_filled 271006
Core_1_L2C_prefetch_useful 220600
Core_1_L2C_prefetch_useless 49965
Core_1_L2C_prefetch_late 162
Core_1_L2C_average_miss_latency 271.42424

Core_1_L2C_rq_access 384895
Core_1_L2C_rq_forward 0
Core_1_L2C_rq_merged 0
Core_1_L2C_rq_to_cache 384895
Core_1_L2C_rq_full 0

Core_1_L2C_wq_access 206974
Core_1_L2C_wq_forward 0
Core_1_L2C_wq_merged 0
Core_1_L2C_wq_to_cache 206974
Core_1_L2C_wq_full 0

Core_1_L2C_pq_access 1740786
Core_1_L2C_pq_forward 0
Core_1_L2C_pq_merged 0
Core_1_L2C_pq_to_cache 1740786
Core_1_L2C_pq_full 0

Core_1_L2C_acc_epochs 175492
Core_1_L2C_acc_level_0 127051
Core_1_L2C_acc_level_1 14732
Core_1_L2C_acc_level_2 8337
Core_1_L2C_acc_level_3 4915
Core_1_L2C_acc_level_4 1063
Core_1_L2C_acc_level_5 5897
Core_1_L2C_acc_level_6 1314
Core_1_L2C_acc_level_7 2934
Core_1_L2C_acc_level_8 544
Core_1_L2C_acc_level_9 8705

Core_1_LLC_total_access 1336345
Core_1_LLC_total_hit 937885
Core_1_LLC_total_miss 398460
Core_1_LLC_loads 140358
Core_1_LLC_load_hit 112844
Core_1_LLC_load_miss 27514
Core_1_LLC_RFOs 2888
Core_1_LLC_RFO_hit 613
Core_1_LLC_RFO_miss 2275
Core_1_LLC_prefetches 1036736
Core_1_LLC_prefetch_hit 693667
Core_1_LLC_prefetch_miss 343069
Core_1_LLC_writebacks 156363
Core_1_LLC_writeback_hit 130761
Core_1_LLC_writeback_miss 25602
Core_1_LLC_prefetch_requested 0
Core_1_LLC_prefetch_dropped 0
Core_1_LLC_prefetch_issued 0
Core_1_LLC_prefetch_filled 4164102
Core_1_LLC_prefetch_useful 922052
Core_1_LLC_prefetch_useless 3178045
Core_1_LLC_prefetch_late 2378
Core_1_LLC_average_miss_latency 1896.82171

Core_1_LLC_rq_access 2034765
Core_1_LLC_rq_forward 0
Core_1_LLC_rq_merged 0
Core_1_LLC_rq_to_cache 2034755
Core_1_LLC_rq_full 0

Core_1_LLC_wq_access 1789922
Core_1_LLC_wq_forward 22
Core_1_LLC_wq_merged 0
Core_1_LLC_wq_to_cache 1789922
Core_1_LLC_wq_full 0

Core_1_LLC_pq_access 12577921
Core_1_LLC_pq_forward 0
Core_1_LLC_pq_merged 0
Core_1_LLC_pq_to_cache 12577907
Core_1_LLC_pq_full 0

Core_1_LLC_acc_epochs 1191882
Core_1_LLC_acc_level_0 909342
Core_1_LLC_acc_level_1 97264
Core_1_LLC_acc_level_2 62408
Core_1_LLC_acc_level_3 28243
Core_1_LLC_acc_level_4 10285
Core_1_LLC_acc_level_5 38220
Core_1_LLC_acc_level_6 8004
Core_1_LLC_acc_level_7 8367
Core_1_LLC_acc_level_8 3339
Core_1_LLC_acc_level_9 26410

Core_1_major_page_fault 0
Core_1_minor_page_fault 1923

Core_2_instructions 150000003
Core_2_cycles 988470370
Core_2_IPC 0.15175

Core_2_branch_prediction_accuracy 99.42626
Core_2_branch_MPKI 1.20862
Core_2_average_ROB_occupancy_at_mispredict 210.52554

Core_2_L1D_total_access 23725809
Core_2_L1D_total_hit 23252659
Core_2_L1D_total_miss 473150
Core_2_L1D_loads 14437596
Core_2_L1D_load_hit 13964846
Core_2_L1D_load_miss 472750
Core_2_L1D_RFOs 9288213
Core_2_L1D_RFO_hit 9287813
Core_2_L1D_RFO_miss 400
Core_2_L1D_prefetches 0
Core_2_L1D_prefetch_hit 0
Core_2_L1D_prefetch_miss 0
Core_2_L1D_writebacks 0
Core_2_L1D_writeback_hit 0
Core_2_L1D_writeback_miss 0
Core_2_L1D_prefetch_requested 0
Core_2_L1D_prefetch_dropped 0
Core_2_L1D_prefetch_issued 0
Core_2_L1D_prefetch_filled 0
Core_2_L1D_prefetch_useful 0
Core_2_L1D_prefetch_useless 0
Core_2_L1D_prefetch_late 0
Core_2_L1D_average_miss_latency 158.12493

Core_2_L1D_rq_access 25138091
Core_2_L1D_rq_forward 0
Core_2_L1D_rq_merged 7578307
Core_2_L1D_rq_to_cache 17559507
Core_2_L1D_rq_full 0

Core_2_L1D_wq_access 11362264
Core_2_L1D_wq_forward 277
Core_2_L1D_wq_merged 143482
Core_2_L1D_wq_to_cache 11218782
Core_2_L1D_wq_full 0

Core_2_L1D_pq_access 0
Core_2_L1D_pq_forward 0
Core_2_L1D_pq_merged 0
Core_2_L1D_pq_to_cache 0
Core_2_L1D_pq_full 0

Core_2_L1D_acc_epochs 191658
Core_2_L1D_acc_level_0 191658
Core_2_L1D_acc_level_1 0
Core_2_L1D_acc_level_2 0
Core_2_L1D_acc_level_3 0
Core_2_L1D_acc_level_4 0
Core_2_L1D_acc_level_5 0
Core_2_L1D_acc_level_6 0
Core_2_L1D_acc_level_7 0
Core_2_L1D_acc_level_8 0
Core_2_L1D_acc_level_9 0

Core_2_L1I_total_access 39944805
Core_2_L1I_total_hit 39944753
Core_2_L1I_total_miss 52
Core_2_L1I_loads 39944805
Core_2_L1I_load_hit 39944753
Core_2_L1I_load_miss 52
Core_2_L1I_RFOs 0
Core_2_L1I_RFO_hit 0
Core_2_L1I_RFO_miss 0
Core_2_L1I_prefetches 0
Core_2_L1I_prefetch_hit 0
Core_2_L1I_prefetch_miss 0
Core_2_L1I_writebacks 0
Core_2_L1I_writeback_hit 0
Core_2_L1I_writeback_miss 0
Core_2_L1I_prefetch_requested 0
Core_2_L1I_prefetch_dropped 0
Core_2_L1I_prefetch_issued 0
Core_2_L1I_prefetch_filled 0
Core_2_L1I_prefetch_useful 0
Core_2_L1I_prefetch_useless 0
Core_2_L1I_prefetch_late 0
Core_2_L1I_average_miss_latency 513.96154

Core_2_L1I_rq_access 182403262
Core_2_L1I_rq_forward 0
Core_2_L1I_rq_merged 133678414
Core_2_L1I_rq_to_cache 48724848
Core_2_L1I_rq_full 0

Core_2_L1I_wq_access 0
Core_2_L1I_wq_forward 0
Core_2_L1I_wq_merged 0
Core_2_L1I_wq_to_cache 0
Core_2_L1I_wq_full 0

Core_2_L1I_pq_access 0
Core_2_L1I_pq_forward 0
Core_2_L1I_pq_merged 0
Core_2_L1I_pq_to_cache 0
Core_2_L1I_pq_full 0

Core_2_L1I_acc_epochs 191658
Core_2_L1I_acc_level_0 191658
Core_2_L1I_acc_level_1 0
Core_2_L1I_acc_level_2 0
Core_2_L1I_acc_level_3 0
Core_2_L1I_acc_level_4 0
Core_2_L1I_acc_level_5 0
Core_2_L1I_acc_level_6 0
Core_2_L1I_acc_level_7 0
Core_2_L1I_acc_level_8 0
Core_2_L1I_acc_level_9 0

Core_2_L2C_total_access 985088
Core_2_L2C_total_hit 520242
Core_2_L2C_total_miss 464846
Core_2_L2C_loads 472802
Core_2_L2C_load_hit 171148
Core_2_L2C_load_miss 301654
Core_2_L2C_RFOs 400
Core_2_L2C_RFO_hit 72
Core_2_L2C_RFO_miss 328
Core_2_L2C_prefetches 363568
Core_2_L2C_prefetch_hit 200851
Core_2_L2C_prefetch_miss 162717
Core_2_L2C_writebacks 148318
Core_2_L2C_writeback_hit 148171
Core_2_L2C_writeback_miss 147
Core_2_L2C_prefetch_requested 3120211
Core_2_L2C_prefetch_dropped 0
Core_2_L2C_prefetch_issued 3120211
Core_2_L2C_prefetch_filled 259751
Core_2_L2C_prefetch_useful 162108
Core_2_L2C_prefetch_useless 97149
Core_2_L2C_prefetch_late 435
Core_2_L2C_average_miss_latency 201.11432

Core_2_L2C_rq_access 576549
Core_2_L2C_rq_forward 0
Core_2_L2C_rq_merged 0
Core_2_L2C_rq_to_cache 576549
Core_2_L2C_rq_full 0

Core_2_L2C_wq_access 180604
Core_2_L2C_wq_forward 1
Core_2_L2C_wq_merged 0
Core_2_L2C_wq_to_cache 180604
Core_2_L2C_wq_full 0

Core_2_L2C_pq_access 3120211
Core_2_L2C_pq_forward 0
Core_2_L2C_pq_merged 0
Core_2_L2C_pq_to_cache 3120210
Core_2_L2C_pq_full 0

Core_2_L2C_acc_epochs 191658
Core_2_L2C_acc_level_0 128149
Core_2_L2C_acc_level_1 18903
Core_2_L2C_acc_level_2 13536
Core_2_L2C_acc_level_3 5473
Core_2_L2C_acc_level_4 1680
Core_2_L2C_acc_level_5 9765
Core_2_L2C_acc_level_6 1819
Core_2_L2C_acc_level_7 2771
Core_2_L2C_acc_level_8 927
Core_2_L2C_acc_level_9 8635

Core_2_LLC_total_access 2266482
Core_2_LLC_total_hit 1448001
Core_2_LLC_total_miss 818481
Core_2_LLC_loads 301333
Core_2_LLC_load_hit 200865
Core_2_LLC_load_miss 100468
Core_2_LLC_RFOs 328
Core_2_LLC_RFO_hit 79
Core_2_LLC_RFO_miss 249
Core_2_LLC_prefetches 1822294
Core_2_LLC_prefetch_hit 1116059
Core_2_LLC_prefetch_miss 706235
Core_2_LLC_writebacks 142527
Core_2_LLC_writeback_hit 130998
Core_2_LLC_writeback_miss 11529
Core_2_LLC_prefetch_requested 0
Core_2_LLC_prefetch_dropped 0
Core_2_LLC_prefetch_issued 0
Core_2_LLC_prefetch_filled 4164102
Core_2_LLC_prefetch_useful 922052
Core_2_LLC_prefetch_useless 3178045
Core_2_LLC_prefetch_late 2378
Core_2_LLC_average_miss_latency 923.42715

Core_2_LLC_rq_access 2034765
Core_2_LLC_rq_forward 0
Core_2_LLC_rq_merged 0
Core_2_LLC_rq_to_cache 2034755
Core_2_LLC_rq_full 0

Core_2_LLC_wq_access 1789922
Core_2_LLC_wq_forward 22
Core_2_LLC_wq_merged 0
Core_2_LLC_wq_to_cache 1789922
Core_2_LLC_wq_full 0

Core_2_LLC_pq_access 12577921
Core_2_LLC_pq_forward 0
Core_2_LLC_pq_merged 0
Core_2_LLC_pq_to_cache 12577907
Core_2_LLC_pq_full 0

Core_2_LLC_acc_epochs 1191882
Core_2_LLC_acc_level_0 909342
Core_2_LLC_acc_level_1 97264
Core_2_LLC_acc_level_2 62408
Core_2_LLC_acc_level_3 28243
Core_2_LLC_acc_level_4 10285
Core_2_LLC_acc_level_5 38220
Core_2_LLC_acc_level_6 8004
Core_2_LLC_acc_level_7 8367
Core_2_LLC_acc_level_8 3339
Core_2_LLC_acc_level_9 26410

Core_2_major_page_fault 0
Core_2_minor_page_fault 4361

Core_3_instructions 150000000
Core_3_cycles 1198165149
Core_3_IPC 0.12519

Core_3_branch_prediction_accuracy 99.49779
Core_3_branch_MPKI 1.14945
Core_3_average_ROB_occupancy_at_mispredict 129.18107

Core_3_L1D_total_access 24748984
Core_3_L1D_total_hit 23582762
Core_3_L1D_total_miss 1166222
Core_3_L1D_loads 14501941
Core_3_L1D_load_hit 13388689
Core_3_L1D_load_miss 1113252
Core_3_L1D_RFOs 10247043
Core_3_L1D_RFO_hit 10194073
Core_3_L1D_RFO_miss 52970
Core_3_L1D_prefetches 0
Core_3_L1D_prefetch_hit 0
Core_3_L1D_prefetch_miss 0
Core_3_L1D_writebacks 0
Core_3_L1D_writeback_hit 0
Core_3_L1D_writeback_miss 0
Core_3_L1D_prefetch_requested 0
Core_3_L1D_prefetch_dropped 0
Core_3_L1D_prefetch_issued 0
Core_3_L1D_prefetch_filled 0
Core_3_L1D_prefetch_useful 0
Core_3_L1D_prefetch_useless 0
Core_3_L1D_prefetch_late 0
Core_3_L1D_average_miss_latency 122.12857

Core_3_L1D_rq_access 21408960
Core_3_L1D_rq_forward 0
Core_3_L1D_rq_merged 6854609
Core_3_L1D_rq_to_cache 14554346
Core_3_L1D_rq_full 0

Core_3_L1D_wq_access 11292077
Core_3_L1D_wq_forward 5
Core_3_L1D_wq_merged 814884
Core_3_L1D_wq_to_cache 10477193
Core_3_L1D_wq_full 15062

Core_3_L1D_pq_access 0
Core_3_L1D_pq_forward 0
Core_3_L1D_pq_merged 0
Core_3_L1D_pq_to_cache 0
Core_3_L1D_pq_full 0

Core_3_L1D_acc_epochs 154948
Core_3_L1D_acc_level_0 154948
Core_3_L1D_acc_level_1 0
Core_3_L1D_acc_level_2 0
Core_3_L1D_acc_level_3 0
Core_3_L1D_acc_level_4 0
Core_3_L1D_acc_level_5 0
Core_3_L1D_acc_level_6 0
Core_3_L1D_acc_level_7 0
Core_3_L1D_acc_level_8 0
Core_3_L1D_acc_level_9 0

Core_3_L1I_total_access 41530980
Core_3_L1I_total_hit 41518909
Core_3_L1I_total_miss 12071
Core_3_L1I_loads 41530980
Core_3_L1I_load_hit 41518909
Core_3_L1I_load_miss 12071
Core_3_L1I_RFOs 0
Core_3_L1I_RFO_hit 0
Core_3_L1I_RFO_miss 0
Core_3_L1I_prefetches 0
Core_3_L1I_prefetch_hit 0
Core_3_L1I_prefetch_miss 0
Core_3_L1I_writebacks 0
Core_3_L1I_writeback_hit 0
Core_3_L1I_writeback_miss 0
Core_3_L1I_prefetch_requested 0
Core_3_L1I_prefetch_dropped 0
Core_3_L1I_prefetch_issued 0
Core_3_L1I_prefetch_filled 0
Core_3_L1I_prefetch_useful 0
Core_3_L1I_prefetch_useless 0
Core_3_L1I_prefetch_late 0
Core_3_L1I_average_miss_latency 165.37097

Core_3_L1I_rq_access 149999753
Core_3_L1I_rq_forward 0
Core_3_L1I_rq_merged 108459600
Core_3_L1I_rq_to_cache 41540153
Core_3_L1I_rq_full 0

Core_3_L1I_wq_access 0
Core_3_L1I_wq_forward 0
Core_3_L1I_wq_merged 0
Core_3_L1I_wq_to_cache 0
Core_3_L1I_wq_full 0

Core_3_L1I_pq_access 0
Core_3_L1I_pq_forward 0
Core_3_L1I_pq_merged 0
Core_3_L1I_pq_to_cache 0
Core_3_L1I_pq_full 0

Core_3_L1I_acc_epochs 154948
Core_3_L1I_acc_level_0 154948
Core_3_L1I_acc_level_1 0
Core_3_L1I_acc_level_2 0
Core_3_L1I_acc_level_3 0
Core_3_L1I_acc_level_4 0
Core_3_L1I_acc_level_5 0
Core_3_L1I_acc_level_6 0
Core_3_L1I_acc_level_7 0
Core_3_L1I_acc_level_8 0
Core_3_L1I_acc_level_9 0

Core_3_L2C_total_access 2957632
Core_3_L2C_total_hit 1934950
Core_3_L2C_total_miss 1022682
Core_3_L2C_loads 1125321
Core_3_L2C_load_hit 682778
Core_3_L2C_load_miss 442543
Core_3_L2C_RFOs 52967
Core_3_L2C_RFO_hit 11553
Core_3_L2C_RFO_miss 41414
Core_3_L2C_prefetches 1065411
Core_3_L2C_prefetch_hit 532443
Core_3_L2C_prefetch_miss 532968
Core_3_L2C_writebacks 713933
Core_3_L2C_writeback_hit 708176
Core_3_L2C_writeback_miss 5757
Core_3_L2C_prefetch_requested 3024926
Core_3_L2C_prefetch_dropped 0
Core_3_L2C_prefetch_issued 3024926
Core_3_L2C_prefetch_filled 698993
Core_3_L2C_prefetch_useful 552731
Core_3_L2C_prefetch_useless 145734
Core_3_L2C_prefetch_late 538
Core_3_L2C_average_miss_latency 194.56907

Core_3_L2C_rq_access 1178293
Core_3_L2C_rq_forward 0
Core_3_L2C_rq_merged 0
Core_3_L2C_rq_to_cache 1178288
Core_3_L2C_rq_full 0

Core_3_L2C_wq_access 713933
Core_3_L2C_wq_forward 5
Core_3_L2C_wq_merged 0
Core_3_L2C_wq_to_cache 713933
Core_3_L2C_wq_full 0

Core_3_L2C_pq_access 3024926
Core_3_L2C_pq_forward 0
Core_3_L2C_pq_merged 0
Core_3_L2C_pq_to_cache 3024926
Core_3_L2C_pq_full 0

Core_3_L2C_acc_epochs 154948
Core_3_L2C_acc_level_0 37699
Core_3_L2C_acc_level_1 13782
Core_3_L2C_acc_level_2 11725
Core_3_L2C_acc_level_3 9296
Core_3_L2C_acc_level_4 7004
Core_3_L2C_acc_level_5 8895
Core_3_L2C_acc_level_6 5977
Core_3_L2C_acc_level_7 5825
Core_3_L2C_acc_level_8 5027
Core_3_L2C_acc_level_9 49718

Core_3_LLC_total_access 2821364
Core_3_LLC_total_hit 2168319
Core_3_LLC_total_miss 653045
Core_3_LLC_loads 442021
Core_3_LLC_load_hit 364724
Core_3_LLC_load_miss 77297
Core_3_LLC_RFOs 41413
Core_3_LLC_RFO_hit 18622
Core_3_LLC_RFO_miss 22791
Core_3_LLC_prefetches 1797352
Core_3_LLC_prefetch_hit 1285600
Core_3_LLC_prefetch_miss 511752
Core_3_LLC_writebacks 540578
Core_3_LLC_writeback_hit 499373
Core_3_LLC_writeback_miss 41205
Core_3_LLC_prefetch_requested 0
Core_3_LLC_prefetch_dropped 0
Core_3_LLC_prefetch_issued 0
Core_3_LLC_prefetch_filled 4164102
Core_3_LLC_prefetch_useful 922052
Core_3_LLC_prefetch_useless 3178045
Core_3_LLC_prefetch_late 2378
Core_3_LLC_average_miss_latency 1157.35911

Core_3_LLC_rq_access 2034765
Core_3_LLC_rq_forward 0
Core_3_LLC_rq_merged 0
Core_3_LLC_rq_to_cache 2034755
Core_3_LLC_rq_full 0

Core_3_LLC_wq_access 1789922
Core_3_LLC_wq_forward 22
Core_3_LLC_wq_merged 0
Core_3_LLC_wq_to_cache 1789922
Core_3_LLC_wq_full 0

Core_3_LLC_pq_access 12577921
Core_3_LLC_pq_forward 0
Core_3_LLC_pq_merged 0
Core_3_LLC_pq_to_cache 12577907
Core_3_LLC_pq_full 0

Core_3_LLC_acc_epochs 1191882
Core_3_LLC_acc_level_0 909342
Core_3_LLC_acc_level_1 97264
Core_3_LLC_acc_level_2 62408
Core_3_LLC_acc_level_3 28243
Core_3_LLC_acc_level_4 10285
Core_3_LLC_acc_level_5 38220
Core_3_LLC_acc_level_6 8004
Core_3_LLC_acc_level_7 8367
Core_3_LLC_acc_level_8 3339
Core_3_LLC_acc_level_9 26410

Core_3_major_page_fault 0
Core_3_minor_page_fault 1707

[Bingo] PHT Access: 859781
[Bingo] PHT Hit PC+Addr: 117025
[Bingo] PHT Hit PC+Offs: 619366
[Bingo] PHT Miss: 123390
[Bingo] Prefetch PC+Addr: 0
[Bingo] Prefetch PC+Offs: 0
[Bingo] Useful PC+Addr: 0
[Bingo] Useful PC+Offs: 0
[Bingo] Useless PC+Addr: 0
[Bingo] Useless PC+Offs: 0
[Bingo] L1 Prefetch per Region: 0.00000
[Bingo] L2 Prefetch per Region: 2.14008
[Bingo] L3 Prefetch per Region: 8.36684
[Bingo] No Prefetch per Region: 21.49308
[Bingo] Number of Voters Mean: 7.27425
[Bingo] Number of Voters SD: 4.58534

[Bingo] PHT Access: 117173
[Bingo] PHT Hit PC+Addr: 17019
[Bingo] PHT Hit PC+Offs: 93676
[Bingo] PHT Miss: 6478
[Bingo] Prefetch PC+Addr: 0
[Bingo] Prefetch PC+Offs: 0
[Bingo] Useful PC+Addr: 0
[Bingo] Useful PC+Offs: 0
[Bingo] Useless PC+Addr: 0
[Bingo] Useless PC+Offs: 0
[Bingo] L1 Prefetch per Region: 0.00000
[Bingo] L2 Prefetch per Region: 3.69474
[Bingo] L3 Prefetch per Region: 13.12840
[Bingo] No Prefetch per Region: 15.17686
[Bingo] Number of Voters Mean: 13.09933
[Bingo] Number of Voters SD: 5.27068

[Bingo] PHT Access: 289535
[Bingo] PHT Hit PC+Addr: 32088
[Bingo] PHT Hit PC+Offs: 252798
[Bingo] PHT Miss: 4649
[Bingo] Prefetch PC+Addr: 0
[Bingo] Prefetch PC+Offs: 0
[Bingo] Useful PC+Addr: 0
[Bingo] Useful PC+Offs: 0
[Bingo] Useless PC+Addr: 0
[Bingo] Useless PC+Offs: 0
[Bingo] L1 Prefetch per Region: 0.00000
[Bingo] L2 Prefetch per Region: 2.17099
[Bingo] L3 Prefetch per Region: 10.37645
[Bingo] No Prefetch per Region: 19.45256
[Bingo] Number of Voters Mean: 9.38180
[Bingo] Number of Voters SD: 5.08208

[Bingo] PHT Access: 267865
[Bingo] PHT Hit PC+Addr: 32215
[Bingo] PHT Hit PC+Offs: 182694
[Bingo] PHT Miss: 52956
[Bingo] Prefetch PC+Addr: 0
[Bingo] Prefetch PC+Offs: 0
[Bingo] Useful PC+Addr: 0
[Bingo] Useful PC+Offs: 0
[Bingo] Useless PC+Addr: 0
[Bingo] Useless PC+Offs: 0
[Bingo] L1 Prefetch per Region: 0.00000
[Bingo] L2 Prefetch per Region: 4.92822
[Bingo] L3 Prefetch per Region: 10.25147
[Bingo] No Prefetch per Region: 16.82031
[Bingo] Number of Voters Mean: 7.62970
[Bingo] Number of Voters SD: 5.41532

Channel_0_RQ_row_buffer_hit 447583
Channel_0_RQ_row_buffer_miss 1319321
Channel_0_WQ_row_buffer_hit 31605
Channel_0_WQ_row_buffer_miss 504850
Channel_0_WQ_full 0
Channel_0_dbus_congested 1267674

Channel_1_RQ_row_buffer_hit 448390
Channel_1_RQ_row_buffer_miss 1301034
Channel_1_WQ_row_buffer_hit 31352
Channel_1_WQ_row_buffer_miss 504682
Channel_1_WQ_full 0
Channel_1_dbus_congested 1264688

avg_congested_cycle 10

DRAM_bw_pochs 4767527
DRAM_bw_level_0 4581075
DRAM_bw_level_1 124330
DRAM_bw_level_2 34773
DRAM_bw_level_3 27349
