*************************************************
   ChampSim Multicore Out-of-Order Simulator
   Last compiled: Mar 31 2025 20:14:32
*************************************************
parsing config file: /data3/config/nopref.ini

trace_0 /data3/CLOUD9/traces/cloud9_phase2_core0.trace.xz
trace_1 /data3/CLOUD9/traces/cloud9_phase2_core1.trace.xz
trace_2 /data3/CLOUD9/traces/cloud9_phase2_core2.trace.xz
trace_3 /data3/CLOUD9/traces/cloud9_phase2_core3.trace.xz
adding L2C_PREFETCHER: NONE
adding L2C_PREFETCHER: NONE
adding L2C_PREFETCHER: NONE
adding L2C_PREFETCHER: NONE
Initialize SHIP state
warmup_instructions 50000000
simulation_instructions 150000000
champsim_seed 7342
measure_ipc 0
measure_ipc_epoch 1000
measure_dram_bw 1
measure_dram_bw_epoch 256
measure_cache_acc 1
measure_cache_acc_epoch 1024
l1d_perfect 0
l2c_perfect 0
llc_perfect 0
l1d_semi_perfect 0
l2c_semi_perfect 0
llc_semi_perfect 0
semi_perfect_cache_page_buffer_size 64

num_cpus 4
cpu_freq 4000
dram_io_freq 2400
page_size 4096
block_size 64
max_read_per_cycle 8
max_fill_per_cycle 1
dram_channels 2
log2_dram_channels 1
dram_ranks 1
dram_banks 8
dram_rows 65536
dram_columns 128
dram_row_size 8
dram_size 8192
dram_pages 2097152

fetch_width 6
decode_width 6
exec_width 4
lq_width 2
sq_width 2
retire_width 4
scheduler_size 128
branch_mispredict_penalty 20
rob_size 256
lq_size 72
sq_size 56
num_instr_destinations_sparc 4
num_instr_destinations 2
num_instr_sources 4

itlb_set 16
itlb_way 8
itlb_rq_size 16
itlb_wq_size 16
itlb_pq_size 0
itlb_mshr_size 8
itlb_latency 1

dtlb_set 16
dtlb_way 4
dtlb_rq_size 16
dtlb_wq_size 16
dtlb_pq_size 0
dtlb_mshr_size 8
dtlb_latency 1

stlb_set 128
stlb_way 12
stlb_rq_size 32
stlb_wq_size 32
stlb_pq_size 0
stlb_mshr_size 16
stlb_latency 8

l1i_size 32
l1i_set 64
l1i_way 8
l1i_rq_size 64
l1i_wq_size 64
l1i_pq_size 8
l1i_mshr_size 8
l1i_latency 1

l1d_size 32
l1d_set 64
l1d_way 8
l1d_rq_size 64
l1d_wq_size 64
l1d_pq_size 8
l1d_mshr_size 16
l1d_latency 4

l2c_size 256
l2c_set 512
l2c_way 8
l2c_rq_size 32
l2c_wq_size 32
l2c_pq_size 32
l2c_mshr_size 32
l2c_latency 10

llc_size 8192
llc_set 8192
llc_way 16
llc_rq_size 128
llc_wq_size 128
llc_pq_size 128
llc_mshr_size 256
llc_latency 20

dram_channel_width 8
dram_wq_size 64
dram_rq_size 64
tRP 15
tRCD 15
tCAS 12.5
dram_dbus_turn_around_time 30
dram_write_high_wm 56
dram_write_low_wm 48
min_dram_writes_per_switch 16
dram_mtps 2400
dram_dbus_return_time 13


Heartbeat CPU  3 instructions:    1000002 cycles:     390613 heartbeat IPC: 2.56008 cumulative IPC: 2.56008 (Simulation time: 0 hr 0 min 6 sec) 
Heartbeat CPU  1 instructions:    1000002 cycles:     424435 heartbeat IPC: 2.35608 cumulative IPC: 2.35608 (Simulation time: 0 hr 0 min 7 sec) 
Heartbeat CPU  2 instructions:    1000001 cycles:     441041 heartbeat IPC: 2.26737 cumulative IPC: 2.26737 (Simulation time: 0 hr 0 min 7 sec) 
Heartbeat CPU  0 instructions:    1000002 cycles:     446190 heartbeat IPC: 2.24120 cumulative IPC: 2.24120 (Simulation time: 0 hr 0 min 7 sec) 
Heartbeat CPU  3 instructions:    2000003 cycles:     789771 heartbeat IPC: 2.50528 cumulative IPC: 2.53238 (Simulation time: 0 hr 0 min 12 sec) 
Heartbeat CPU  1 instructions:    2000000 cycles:     814573 heartbeat IPC: 2.56319 cumulative IPC: 2.45527 (Simulation time: 0 hr 0 min 13 sec) 
Heartbeat CPU  2 instructions:    2000000 cycles:     899287 heartbeat IPC: 2.18223 cumulative IPC: 2.22398 (Simulation time: 0 hr 0 min 14 sec) 
Heartbeat CPU  0 instructions:    2000000 cycles:     906529 heartbeat IPC: 2.17231 cumulative IPC: 2.20622 (Simulation time: 0 hr 0 min 14 sec) 
Heartbeat CPU  3 instructions:    3000000 cycles:    1176768 heartbeat IPC: 2.58399 cumulative IPC: 2.54936 (Simulation time: 0 hr 0 min 18 sec) 
Heartbeat CPU  1 instructions:    3000003 cycles:    1200201 heartbeat IPC: 2.59318 cumulative IPC: 2.49958 (Simulation time: 0 hr 0 min 19 sec) 
Heartbeat CPU  2 instructions:    3000003 cycles:    1321780 heartbeat IPC: 2.36691 cumulative IPC: 2.26967 (Simulation time: 0 hr 0 min 21 sec) 
Heartbeat CPU  0 instructions:    3000000 cycles:    1342576 heartbeat IPC: 2.29333 cumulative IPC: 2.23451 (Simulation time: 0 hr 0 min 21 sec) 
Heartbeat CPU  3 instructions:    4000000 cycles:    1565597 heartbeat IPC: 2.57182 cumulative IPC: 2.55494 (Simulation time: 0 hr 0 min 24 sec) 
Heartbeat CPU  1 instructions:    4000000 cycles:    1582228 heartbeat IPC: 2.61761 cumulative IPC: 2.52808 (Simulation time: 0 hr 0 min 25 sec) 
Heartbeat CPU  2 instructions:    4000000 cycles:    1792115 heartbeat IPC: 2.12614 cumulative IPC: 2.23200 (Simulation time: 0 hr 0 min 28 sec) 
Heartbeat CPU  0 instructions:    4000000 cycles:    1838530 heartbeat IPC: 2.01632 cumulative IPC: 2.17565 (Simulation time: 0 hr 0 min 28 sec) 
Heartbeat CPU  3 instructions:    5000000 cycles:    1955422 heartbeat IPC: 2.56525 cumulative IPC: 2.55699 (Simulation time: 0 hr 0 min 30 sec) 
Heartbeat CPU  1 instructions:    5000001 cycles:    1967041 heartbeat IPC: 2.59867 cumulative IPC: 2.54189 (Simulation time: 0 hr 0 min 30 sec) 
Heartbeat CPU  2 instructions:    5000002 cycles:    2239981 heartbeat IPC: 2.23282 cumulative IPC: 2.23216 (Simulation time: 0 hr 0 min 35 sec) 
Heartbeat CPU  0 instructions:    5000001 cycles:    2270279 heartbeat IPC: 2.31616 cumulative IPC: 2.20237 (Simulation time: 0 hr 0 min 35 sec) 
Heartbeat CPU  3 instructions:    6000003 cycles:    2344455 heartbeat IPC: 2.57048 cumulative IPC: 2.55923 (Simulation time: 0 hr 0 min 36 sec) 
Heartbeat CPU  1 instructions:    6000000 cycles:    2350567 heartbeat IPC: 2.60738 cumulative IPC: 2.55258 (Simulation time: 0 hr 0 min 37 sec) 
Heartbeat CPU  2 instructions:    6000000 cycles:    2658812 heartbeat IPC: 2.38759 cumulative IPC: 2.25665 (Simulation time: 0 hr 0 min 41 sec) 
Heartbeat CPU  0 instructions:    6000002 cycles:    2701498 heartbeat IPC: 2.31901 cumulative IPC: 2.22099 (Simulation time: 0 hr 0 min 42 sec) 
Heartbeat CPU  1 instructions:    7000001 cycles:    2734812 heartbeat IPC: 2.60251 cumulative IPC: 2.55959 (Simulation time: 0 hr 0 min 43 sec) 
Heartbeat CPU  3 instructions:    7000002 cycles:    2735234 heartbeat IPC: 2.55899 cumulative IPC: 2.55920 (Simulation time: 0 hr 0 min 43 sec) 
Heartbeat CPU  2 instructions:    7000003 cycles:    3096724 heartbeat IPC: 2.28357 cumulative IPC: 2.26045 (Simulation time: 0 hr 0 min 48 sec) 
Heartbeat CPU  1 instructions:    8000000 cycles:    3115374 heartbeat IPC: 2.62769 cumulative IPC: 2.56791 (Simulation time: 0 hr 0 min 49 sec) 
Heartbeat CPU  3 instructions:    8000000 cycles:    3124332 heartbeat IPC: 2.57004 cumulative IPC: 2.56055 (Simulation time: 0 hr 0 min 49 sec) 
Heartbeat CPU  0 instructions:    7000003 cycles:    3140033 heartbeat IPC: 2.28032 cumulative IPC: 2.22928 (Simulation time: 0 hr 0 min 49 sec) 
Heartbeat CPU  1 instructions:    9000003 cycles:    3499087 heartbeat IPC: 2.60612 cumulative IPC: 2.57210 (Simulation time: 0 hr 0 min 55 sec) 
Heartbeat CPU  3 instructions:    9000003 cycles:    3513031 heartbeat IPC: 2.57269 cumulative IPC: 2.56189 (Simulation time: 0 hr 0 min 55 sec) 
Heartbeat CPU  2 instructions:    8000000 cycles:    3516446 heartbeat IPC: 2.38252 cumulative IPC: 2.27502 (Simulation time: 0 hr 0 min 55 sec) 
Heartbeat CPU  0 instructions:    8000000 cycles:    3576742 heartbeat IPC: 2.28985 cumulative IPC: 2.23667 (Simulation time: 0 hr 0 min 56 sec) 
Heartbeat CPU  1 instructions:   10000002 cycles:    3888354 heartbeat IPC: 2.56893 cumulative IPC: 2.57178 (Simulation time: 0 hr 1 min 0 sec) 
Heartbeat CPU  3 instructions:   10000001 cycles:    3901847 heartbeat IPC: 2.57191 cumulative IPC: 2.56289 (Simulation time: 0 hr 1 min 0 sec) 
Heartbeat CPU  2 instructions:    9000001 cycles:    4094001 heartbeat IPC: 1.73144 cumulative IPC: 2.19834 (Simulation time: 0 hr 1 min 3 sec) 
Heartbeat CPU  0 instructions:    9000001 cycles:    4182186 heartbeat IPC: 1.65168 cumulative IPC: 2.15198 (Simulation time: 0 hr 1 min 4 sec) 
Heartbeat CPU  1 instructions:   11000002 cycles:    4271179 heartbeat IPC: 2.61216 cumulative IPC: 2.57540 (Simulation time: 0 hr 1 min 6 sec) 
Heartbeat CPU  3 instructions:   11000000 cycles:    4290530 heartbeat IPC: 2.57279 cumulative IPC: 2.56379 (Simulation time: 0 hr 1 min 6 sec) 
Heartbeat CPU  2 instructions:   10000001 cycles:    4526179 heartbeat IPC: 2.31386 cumulative IPC: 2.20937 (Simulation time: 0 hr 1 min 10 sec) 
Heartbeat CPU  0 instructions:   10000002 cycles:    4618431 heartbeat IPC: 2.29229 cumulative IPC: 2.16524 (Simulation time: 0 hr 1 min 11 sec) 
Heartbeat CPU  1 instructions:   12000000 cycles:    4654483 heartbeat IPC: 2.60889 cumulative IPC: 2.57816 (Simulation time: 0 hr 1 min 12 sec) 
Heartbeat CPU  3 instructions:   12000000 cycles:    4679512 heartbeat IPC: 2.57081 cumulative IPC: 2.56437 (Simulation time: 0 hr 1 min 12 sec) 
Heartbeat CPU  2 instructions:   11000000 cycles:    4957074 heartbeat IPC: 2.32075 cumulative IPC: 2.21905 (Simulation time: 0 hr 1 min 17 sec) 
Heartbeat CPU  1 instructions:   13000000 cycles:    5036416 heartbeat IPC: 2.61826 cumulative IPC: 2.58120 (Simulation time: 0 hr 1 min 18 sec) 
Heartbeat CPU  0 instructions:   11000002 cycles:    5055950 heartbeat IPC: 2.28561 cumulative IPC: 2.17565 (Simulation time: 0 hr 1 min 18 sec) 
Heartbeat CPU  3 instructions:   13000000 cycles:    5070415 heartbeat IPC: 2.55818 cumulative IPC: 2.56389 (Simulation time: 0 hr 1 min 18 sec) 
Heartbeat CPU  2 instructions:   12000000 cycles:    5391010 heartbeat IPC: 2.30449 cumulative IPC: 2.22593 (Simulation time: 0 hr 1 min 23 sec) 
Heartbeat CPU  1 instructions:   14000003 cycles:    5417884 heartbeat IPC: 2.62146 cumulative IPC: 2.58404 (Simulation time: 0 hr 1 min 24 sec) 
Heartbeat CPU  3 instructions:   14000001 cycles:    5460789 heartbeat IPC: 2.56165 cumulative IPC: 2.56373 (Simulation time: 0 hr 1 min 24 sec) 
Heartbeat CPU  0 instructions:   12000000 cycles:    5493956 heartbeat IPC: 2.28307 cumulative IPC: 2.18422 (Simulation time: 0 hr 1 min 25 sec) 
Heartbeat CPU  1 instructions:   15000000 cycles:    5798952 heartbeat IPC: 2.62420 cumulative IPC: 2.58667 (Simulation time: 0 hr 1 min 29 sec) 
Heartbeat CPU  2 instructions:   13000003 cycles:    5852204 heartbeat IPC: 2.16829 cumulative IPC: 2.22139 (Simulation time: 0 hr 1 min 30 sec) 
Heartbeat CPU  3 instructions:   15000001 cycles:    5855152 heartbeat IPC: 2.53573 cumulative IPC: 2.56185 (Simulation time: 0 hr 1 min 30 sec) 
Heartbeat CPU  0 instructions:   13000001 cycles:    5959288 heartbeat IPC: 2.14901 cumulative IPC: 2.18147 (Simulation time: 0 hr 1 min 32 sec) 
Heartbeat CPU  1 instructions:   16000000 cycles:    6180302 heartbeat IPC: 2.62226 cumulative IPC: 2.58887 (Simulation time: 0 hr 1 min 35 sec) 
Heartbeat CPU  3 instructions:   16000000 cycles:    6249071 heartbeat IPC: 2.53859 cumulative IPC: 2.56038 (Simulation time: 0 hr 1 min 35 sec) 
Heartbeat CPU  2 instructions:   14000000 cycles:    6344927 heartbeat IPC: 2.02953 cumulative IPC: 2.20649 (Simulation time: 0 hr 1 min 37 sec) 
Heartbeat CPU  0 instructions:   14000000 cycles:    6432203 heartbeat IPC: 2.11454 cumulative IPC: 2.17655 (Simulation time: 0 hr 1 min 38 sec) 
Heartbeat CPU  1 instructions:   17000001 cycles:    6560750 heartbeat IPC: 2.62848 cumulative IPC: 2.59117 (Simulation time: 0 hr 1 min 40 sec) 
Heartbeat CPU  3 instructions:   17000001 cycles:    6644978 heartbeat IPC: 2.52585 cumulative IPC: 2.55832 (Simulation time: 0 hr 1 min 42 sec) 
Heartbeat CPU  2 instructions:   15000001 cycles:    6776286 heartbeat IPC: 2.31826 cumulative IPC: 2.21360 (Simulation time: 0 hr 1 min 44 sec) 
Heartbeat CPU  0 instructions:   15000002 cycles:    6881806 heartbeat IPC: 2.22419 cumulative IPC: 2.17966 (Simulation time: 0 hr 1 min 45 sec) 
Heartbeat CPU  1 instructions:   18000002 cycles:    6942784 heartbeat IPC: 2.61757 cumulative IPC: 2.59262 (Simulation time: 0 hr 1 min 46 sec) 
Heartbeat CPU  3 instructions:   18000000 cycles:    7038790 heartbeat IPC: 2.53928 cumulative IPC: 2.55726 (Simulation time: 0 hr 1 min 48 sec) 
Heartbeat CPU  2 instructions:   16000000 cycles:    7214541 heartbeat IPC: 2.28177 cumulative IPC: 2.21774 (Simulation time: 0 hr 1 min 50 sec) 
Heartbeat CPU  0 instructions:   16000000 cycles:    7319740 heartbeat IPC: 2.28344 cumulative IPC: 2.18587 (Simulation time: 0 hr 1 min 52 sec) 
Heartbeat CPU  1 instructions:   19000002 cycles:    7328052 heartbeat IPC: 2.59560 cumulative IPC: 2.59278 (Simulation time: 0 hr 1 min 52 sec) 
Heartbeat CPU  3 instructions:   19000001 cycles:    7433476 heartbeat IPC: 2.53366 cumulative IPC: 2.55601 (Simulation time: 0 hr 1 min 54 sec) 
Heartbeat CPU  2 instructions:   17000000 cycles:    7667631 heartbeat IPC: 2.20707 cumulative IPC: 2.21711 (Simulation time: 0 hr 1 min 57 sec) 
Heartbeat CPU  1 instructions:   20000000 cycles:    7712929 heartbeat IPC: 2.59823 cumulative IPC: 2.59305 (Simulation time: 0 hr 1 min 58 sec) 
Heartbeat CPU  0 instructions:   17000002 cycles:    7779799 heartbeat IPC: 2.17364 cumulative IPC: 2.18515 (Simulation time: 0 hr 1 min 59 sec) 
Heartbeat CPU  3 instructions:   20000000 cycles:    7827280 heartbeat IPC: 2.53933 cumulative IPC: 2.55517 (Simulation time: 0 hr 2 min 0 sec) 
Heartbeat CPU  1 instructions:   21000001 cycles:    8093896 heartbeat IPC: 2.62490 cumulative IPC: 2.59455 (Simulation time: 0 hr 2 min 4 sec) 
Heartbeat CPU  2 instructions:   18000001 cycles:    8095783 heartbeat IPC: 2.33562 cumulative IPC: 2.22338 (Simulation time: 0 hr 2 min 4 sec) 
Heartbeat CPU  0 instructions:   18000001 cycles:    8217133 heartbeat IPC: 2.28658 cumulative IPC: 2.19055 (Simulation time: 0 hr 2 min 6 sec) 
Heartbeat CPU  3 instructions:   21000003 cycles:    8221250 heartbeat IPC: 2.53827 cumulative IPC: 2.55436 (Simulation time: 0 hr 2 min 6 sec) 
Heartbeat CPU  1 instructions:   22000002 cycles:    8474140 heartbeat IPC: 2.62989 cumulative IPC: 2.59613 (Simulation time: 0 hr 2 min 10 sec) 
Heartbeat CPU  2 instructions:   19000002 cycles:    8583790 heartbeat IPC: 2.04915 cumulative IPC: 2.21347 (Simulation time: 0 hr 2 min 11 sec) 
Heartbeat CPU  3 instructions:   22000000 cycles:    8615384 heartbeat IPC: 2.53720 cumulative IPC: 2.55357 (Simulation time: 0 hr 2 min 12 sec) 
Heartbeat CPU  0 instructions:   19000001 cycles:    8716164 heartbeat IPC: 2.00388 cumulative IPC: 2.17986 (Simulation time: 0 hr 2 min 13 sec) 
Heartbeat CPU  1 instructions:   23000001 cycles:    8855558 heartbeat IPC: 2.62179 cumulative IPC: 2.59724 (Simulation time: 0 hr 2 min 16 sec) 
Heartbeat CPU  2 instructions:   20000000 cycles:    9005052 heartbeat IPC: 2.37381 cumulative IPC: 2.22098 (Simulation time: 0 hr 2 min 18 sec) 
Heartbeat CPU  3 instructions:   23000001 cycles:    9008219 heartbeat IPC: 2.54560 cumulative IPC: 2.55322 (Simulation time: 0 hr 2 min 18 sec) 
Heartbeat CPU  0 instructions:   20000000 cycles:    9141982 heartbeat IPC: 2.34842 cumulative IPC: 2.18771 (Simulation time: 0 hr 2 min 20 sec) 
Heartbeat CPU  1 instructions:   24000000 cycles:    9236639 heartbeat IPC: 2.62411 cumulative IPC: 2.59835 (Simulation time: 0 hr 2 min 22 sec) 
Heartbeat CPU  3 instructions:   24000000 cycles:    9402630 heartbeat IPC: 2.53542 cumulative IPC: 2.55248 (Simulation time: 0 hr 2 min 24 sec) 
Heartbeat CPU  2 instructions:   21000001 cycles:    9429850 heartbeat IPC: 2.35406 cumulative IPC: 2.22697 (Simulation time: 0 hr 2 min 25 sec) 
Heartbeat CPU  0 instructions:   21000002 cycles:    9580577 heartbeat IPC: 2.28001 cumulative IPC: 2.19194 (Simulation time: 0 hr 2 min 27 sec) 
Heartbeat CPU  1 instructions:   25000000 cycles:    9617873 heartbeat IPC: 2.62306 cumulative IPC: 2.59933 (Simulation time: 0 hr 2 min 28 sec) 
Heartbeat CPU  3 instructions:   25000003 cycles:    9797185 heartbeat IPC: 2.53451 cumulative IPC: 2.55175 (Simulation time: 0 hr 2 min 30 sec) 
Heartbeat CPU  2 instructions:   22000001 cycles:    9854621 heartbeat IPC: 2.35421 cumulative IPC: 2.23246 (Simulation time: 0 hr 2 min 31 sec) 
Heartbeat CPU  0 instructions:   22000000 cycles:   10012788 heartbeat IPC: 2.31368 cumulative IPC: 2.19719 (Simulation time: 0 hr 2 min 34 sec) 
Heartbeat CPU  1 instructions:   26000003 cycles:   10182509 heartbeat IPC: 1.77106 cumulative IPC: 2.55340 (Simulation time: 0 hr 2 min 36 sec) 
Heartbeat CPU  3 instructions:   26000003 cycles:   10192571 heartbeat IPC: 2.52917 cumulative IPC: 2.55088 (Simulation time: 0 hr 2 min 36 sec) 
Heartbeat CPU  2 instructions:   23000003 cycles:   10275429 heartbeat IPC: 2.37639 cumulative IPC: 2.23835 (Simulation time: 0 hr 2 min 37 sec) 
Heartbeat CPU  0 instructions:   23000003 cycles:   10449804 heartbeat IPC: 2.28825 cumulative IPC: 2.20100 (Simulation time: 0 hr 2 min 40 sec) 
Heartbeat CPU  1 instructions:   27000001 cycles:   10565728 heartbeat IPC: 2.60947 cumulative IPC: 2.55543 (Simulation time: 0 hr 2 min 41 sec) 
Heartbeat CPU  3 instructions:   27000002 cycles:   10588889 heartbeat IPC: 2.52322 cumulative IPC: 2.54984 (Simulation time: 0 hr 2 min 41 sec) 
Heartbeat CPU  2 instructions:   24000000 cycles:   10853093 heartbeat IPC: 1.73110 cumulative IPC: 2.21135 (Simulation time: 0 hr 2 min 45 sec) 
Heartbeat CPU  1 instructions:   28000000 cycles:   10947385 heartbeat IPC: 2.62015 cumulative IPC: 2.55769 (Simulation time: 0 hr 2 min 47 sec) 
Heartbeat CPU  3 instructions:   28000000 cycles:   10979239 heartbeat IPC: 2.56180 cumulative IPC: 2.55027 (Simulation time: 0 hr 2 min 47 sec) 
Heartbeat CPU  0 instructions:   24000000 cycles:   11057175 heartbeat IPC: 1.64644 cumulative IPC: 2.17054 (Simulation time: 0 hr 2 min 48 sec) 
Heartbeat CPU  2 instructions:   25000001 cycles:   11285557 heartbeat IPC: 2.31233 cumulative IPC: 2.21522 (Simulation time: 0 hr 2 min 52 sec) 
Heartbeat CPU  1 instructions:   29000002 cycles:   11327870 heartbeat IPC: 2.62823 cumulative IPC: 2.56006 (Simulation time: 0 hr 2 min 53 sec) 
Heartbeat CPU  3 instructions:   29000002 cycles:   11372780 heartbeat IPC: 2.54104 cumulative IPC: 2.54995 (Simulation time: 0 hr 2 min 53 sec) 
Heartbeat CPU  0 instructions:   25000003 cycles:   11496243 heartbeat IPC: 2.27756 cumulative IPC: 2.17462 (Simulation time: 0 hr 2 min 55 sec) 
Heartbeat CPU  1 instructions:   30000003 cycles:   11710597 heartbeat IPC: 2.61283 cumulative IPC: 2.56178 (Simulation time: 0 hr 2 min 59 sec) 
Heartbeat CPU  2 instructions:   26000000 cycles:   11714966 heartbeat IPC: 2.32878 cumulative IPC: 2.21938 (Simulation time: 0 hr 2 min 59 sec) 
Heartbeat CPU  3 instructions:   30000001 cycles:   11767691 heartbeat IPC: 2.53221 cumulative IPC: 2.54935 (Simulation time: 0 hr 3 min 0 sec) 
Heartbeat CPU  0 instructions:   26000002 cycles:   11928997 heartbeat IPC: 2.31078 cumulative IPC: 2.17956 (Simulation time: 0 hr 3 min 2 sec) 
Heartbeat CPU  1 instructions:   31000003 cycles:   12093077 heartbeat IPC: 2.61452 cumulative IPC: 2.56345 (Simulation time: 0 hr 3 min 5 sec) 
Heartbeat CPU  2 instructions:   27000001 cycles:   12158588 heartbeat IPC: 2.25417 cumulative IPC: 2.22065 (Simulation time: 0 hr 3 min 5 sec) 
Heartbeat CPU  3 instructions:   31000000 cycles:   12162820 heartbeat IPC: 2.53082 cumulative IPC: 2.54875 (Simulation time: 0 hr 3 min 6 sec) 
Heartbeat CPU  0 instructions:   27000000 cycles:   12407768 heartbeat IPC: 2.08868 cumulative IPC: 2.17606 (Simulation time: 0 hr 3 min 9 sec) 
Heartbeat CPU  1 instructions:   32000000 cycles:   12474388 heartbeat IPC: 2.62252 cumulative IPC: 2.56526 (Simulation time: 0 hr 3 min 10 sec) 
Heartbeat CPU  3 instructions:   32000000 cycles:   12558799 heartbeat IPC: 2.52539 cumulative IPC: 2.54801 (Simulation time: 0 hr 3 min 11 sec) 
Heartbeat CPU  2 instructions:   28000000 cycles:   12623542 heartbeat IPC: 2.15075 cumulative IPC: 2.21808 (Simulation time: 0 hr 3 min 12 sec) 
Heartbeat CPU  1 instructions:   33000003 cycles:   12855195 heartbeat IPC: 2.62601 cumulative IPC: 2.56706 (Simulation time: 0 hr 3 min 15 sec) 
Heartbeat CPU  0 instructions:   28000000 cycles:   12873256 heartbeat IPC: 2.14828 cumulative IPC: 2.17505 (Simulation time: 0 hr 3 min 16 sec) 
Heartbeat CPU  3 instructions:   33000000 cycles:   12953719 heartbeat IPC: 2.53216 cumulative IPC: 2.54753 (Simulation time: 0 hr 3 min 17 sec) 
Heartbeat CPU  2 instructions:   29000003 cycles:   13070508 heartbeat IPC: 2.23731 cumulative IPC: 2.21874 (Simulation time: 0 hr 3 min 19 sec) 
Heartbeat CPU  1 instructions:   34000002 cycles:   13237950 heartbeat IPC: 2.61263 cumulative IPC: 2.56837 (Simulation time: 0 hr 3 min 21 sec) 
Heartbeat CPU  0 instructions:   29000002 cycles:   13308088 heartbeat IPC: 2.29974 cumulative IPC: 2.17913 (Simulation time: 0 hr 3 min 22 sec) 
Heartbeat CPU  3 instructions:   34000002 cycles:   13348673 heartbeat IPC: 2.53195 cumulative IPC: 2.54707 (Simulation time: 0 hr 3 min 23 sec) 
Heartbeat CPU  2 instructions:   30000000 cycles:   13512466 heartbeat IPC: 2.26265 cumulative IPC: 2.22017 (Simulation time: 0 hr 3 min 25 sec) 
Heartbeat CPU  1 instructions:   35000002 cycles:   13619897 heartbeat IPC: 2.61816 cumulative IPC: 2.56977 (Simulation time: 0 hr 3 min 27 sec) 
Heartbeat CPU  3 instructions:   35000000 cycles:   13743383 heartbeat IPC: 2.53350 cumulative IPC: 2.54668 (Simulation time: 0 hr 3 min 29 sec) 
Heartbeat CPU  0 instructions:   30000001 cycles:   13753844 heartbeat IPC: 2.24338 cumulative IPC: 2.18121 (Simulation time: 0 hr 3 min 29 sec) 
Heartbeat CPU  2 instructions:   31000001 cycles:   13938904 heartbeat IPC: 2.34501 cumulative IPC: 2.22399 (Simulation time: 0 hr 3 min 32 sec) 
Heartbeat CPU  1 instructions:   36000000 cycles:   14003216 heartbeat IPC: 2.60879 cumulative IPC: 2.57084 (Simulation time: 0 hr 3 min 33 sec) 
Heartbeat CPU  3 instructions:   36000000 cycles:   14138343 heartbeat IPC: 2.53190 cumulative IPC: 2.54627 (Simulation time: 0 hr 3 min 35 sec) 
Heartbeat CPU  0 instructions:   31000003 cycles:   14219366 heartbeat IPC: 2.14813 cumulative IPC: 2.18013 (Simulation time: 0 hr 3 min 36 sec) 
Heartbeat CPU  2 instructions:   32000000 cycles:   14391972 heartbeat IPC: 2.20717 cumulative IPC: 2.22346 (Simulation time: 0 hr 3 min 39 sec) 
Heartbeat CPU  1 instructions:   37000000 cycles:   14429610 heartbeat IPC: 2.34525 cumulative IPC: 2.56417 (Simulation time: 0 hr 3 min 39 sec) 
Heartbeat CPU  3 instructions:   37000001 cycles:   14533045 heartbeat IPC: 2.53356 cumulative IPC: 2.54592 (Simulation time: 0 hr 3 min 41 sec) 
Heartbeat CPU  0 instructions:   32000000 cycles:   14653703 heartbeat IPC: 2.30235 cumulative IPC: 2.18375 (Simulation time: 0 hr 3 min 43 sec) 
Heartbeat CPU  2 instructions:   33000000 cycles:   14814217 heartbeat IPC: 2.36829 cumulative IPC: 2.22759 (Simulation time: 0 hr 3 min 45 sec) 
Heartbeat CPU  1 instructions:   38000000 cycles:   14885860 heartbeat IPC: 2.19178 cumulative IPC: 2.55276 (Simulation time: 0 hr 3 min 46 sec) 
Heartbeat CPU  3 instructions:   38000001 cycles:   14927996 heartbeat IPC: 2.53196 cumulative IPC: 2.54555 (Simulation time: 0 hr 3 min 47 sec) 
Heartbeat CPU  0 instructions:   33000000 cycles:   15088565 heartbeat IPC: 2.29958 cumulative IPC: 2.18709 (Simulation time: 0 hr 3 min 49 sec) 
Heartbeat CPU  2 instructions:   34000001 cycles:   15305156 heartbeat IPC: 2.03692 cumulative IPC: 2.22147 (Simulation time: 0 hr 3 min 52 sec) 
Heartbeat CPU  3 instructions:   39000001 cycles:   15322256 heartbeat IPC: 2.53640 cumulative IPC: 2.54532 (Simulation time: 0 hr 3 min 52 sec) 
Heartbeat CPU  1 instructions:   39000001 cycles:   15341987 heartbeat IPC: 2.19237 cumulative IPC: 2.54204 (Simulation time: 0 hr 3 min 52 sec) 
Heartbeat CPU  0 instructions:   34000003 cycles:   15584082 heartbeat IPC: 2.01810 cumulative IPC: 2.18171 (Simulation time: 0 hr 3 min 56 sec) 
Heartbeat CPU  3 instructions:   40000000 cycles:   15710161 heartbeat IPC: 2.57795 cumulative IPC: 2.54612 (Simulation time: 0 hr 3 min 58 sec) 
Heartbeat CPU  2 instructions:   35000002 cycles:   15728428 heartbeat IPC: 2.36255 cumulative IPC: 2.22527 (Simulation time: 0 hr 3 min 58 sec) 
Heartbeat CPU  1 instructions:   40000000 cycles:   15794373 heartbeat IPC: 2.21050 cumulative IPC: 2.53255 (Simulation time: 0 hr 3 min 59 sec) 
Heartbeat CPU  0 instructions:   35000002 cycles:   16014345 heartbeat IPC: 2.32416 cumulative IPC: 2.18554 (Simulation time: 0 hr 4 min 3 sec) 
Heartbeat CPU  3 instructions:   41000002 cycles:   16104503 heartbeat IPC: 2.53587 cumulative IPC: 2.54587 (Simulation time: 0 hr 4 min 4 sec) 
Heartbeat CPU  2 instructions:   36000000 cycles:   16153338 heartbeat IPC: 2.35343 cumulative IPC: 2.22864 (Simulation time: 0 hr 4 min 5 sec) 
Heartbeat CPU  1 instructions:   41000002 cycles:   16253381 heartbeat IPC: 2.17862 cumulative IPC: 2.52255 (Simulation time: 0 hr 4 min 6 sec) 
Heartbeat CPU  0 instructions:   36000000 cycles:   16451243 heartbeat IPC: 2.28886 cumulative IPC: 2.18828 (Simulation time: 0 hr 4 min 9 sec) 
Heartbeat CPU  3 instructions:   42000002 cycles:   16498133 heartbeat IPC: 2.54046 cumulative IPC: 2.54574 (Simulation time: 0 hr 4 min 10 sec) 
Heartbeat CPU  2 instructions:   37000000 cycles:   16574761 heartbeat IPC: 2.37291 cumulative IPC: 2.23231 (Simulation time: 0 hr 4 min 11 sec) 
Heartbeat CPU  1 instructions:   42000000 cycles:   16672829 heartbeat IPC: 2.38408 cumulative IPC: 2.51907 (Simulation time: 0 hr 4 min 13 sec) 
Heartbeat CPU  0 instructions:   37000001 cycles:   16885214 heartbeat IPC: 2.30430 cumulative IPC: 2.19127 (Simulation time: 0 hr 4 min 16 sec) 
Heartbeat CPU  3 instructions:   43000002 cycles:   16893098 heartbeat IPC: 2.53187 cumulative IPC: 2.54542 (Simulation time: 0 hr 4 min 16 sec) 
Heartbeat CPU  2 instructions:   38000001 cycles:   16997175 heartbeat IPC: 2.36735 cumulative IPC: 2.23567 (Simulation time: 0 hr 4 min 18 sec) 
Heartbeat CPU  1 instructions:   43000001 cycles:   17093296 heartbeat IPC: 2.37831 cumulative IPC: 2.51561 (Simulation time: 0 hr 4 min 19 sec) 
Heartbeat CPU  3 instructions:   44000000 cycles:   17287650 heartbeat IPC: 2.53452 cumulative IPC: 2.54517 (Simulation time: 0 hr 4 min 21 sec) 
Heartbeat CPU  0 instructions:   38000002 cycles:   17487604 heartbeat IPC: 1.66006 cumulative IPC: 2.17297 (Simulation time: 0 hr 4 min 24 sec) 
Heartbeat CPU  1 instructions:   44000000 cycles:   17504532 heartbeat IPC: 2.43169 cumulative IPC: 2.51363 (Simulation time: 0 hr 4 min 24 sec) 
Heartbeat CPU  2 instructions:   39000003 cycles:   17576987 heartbeat IPC: 1.72470 cumulative IPC: 2.21881 (Simulation time: 0 hr 4 min 25 sec) 
Heartbeat CPU  3 instructions:   45000002 cycles:   17680773 heartbeat IPC: 2.54374 cumulative IPC: 2.54514 (Simulation time: 0 hr 4 min 27 sec) 
Heartbeat CPU  1 instructions:   45000003 cycles:   17920802 heartbeat IPC: 2.40229 cumulative IPC: 2.51105 (Simulation time: 0 hr 4 min 31 sec) 
Heartbeat CPU  0 instructions:   39000003 cycles:   17924059 heartbeat IPC: 2.29119 cumulative IPC: 2.17585 (Simulation time: 0 hr 4 min 31 sec) 
Heartbeat CPU  2 instructions:   40000000 cycles:   18007108 heartbeat IPC: 2.32492 cumulative IPC: 2.22134 (Simulation time: 0 hr 4 min 32 sec) 
Heartbeat CPU  3 instructions:   46000002 cycles:   18073778 heartbeat IPC: 2.54450 cumulative IPC: 2.54512 (Simulation time: 0 hr 4 min 33 sec) 
Heartbeat CPU  1 instructions:   46000003 cycles:   18334900 heartbeat IPC: 2.41489 cumulative IPC: 2.50888 (Simulation time: 0 hr 4 min 37 sec) 
Heartbeat CPU  0 instructions:   40000000 cycles:   18364066 heartbeat IPC: 2.27268 cumulative IPC: 2.17817 (Simulation time: 0 hr 4 min 38 sec) 
Heartbeat CPU  2 instructions:   41000002 cycles:   18435089 heartbeat IPC: 2.33656 cumulative IPC: 2.22402 (Simulation time: 0 hr 4 min 39 sec) 
Heartbeat CPU  3 instructions:   47000003 cycles:   18467767 heartbeat IPC: 2.53814 cumulative IPC: 2.54497 (Simulation time: 0 hr 4 min 39 sec) 
Heartbeat CPU  1 instructions:   47000003 cycles:   18747569 heartbeat IPC: 2.42325 cumulative IPC: 2.50699 (Simulation time: 0 hr 4 min 44 sec) 
Heartbeat CPU  0 instructions:   41000001 cycles:   18792513 heartbeat IPC: 2.33401 cumulative IPC: 2.18172 (Simulation time: 0 hr 4 min 44 sec) 
Heartbeat CPU  3 instructions:   48000000 cycles:   18861541 heartbeat IPC: 2.53952 cumulative IPC: 2.54486 (Simulation time: 0 hr 4 min 45 sec) 
Heartbeat CPU  2 instructions:   42000002 cycles:   18884296 heartbeat IPC: 2.22615 cumulative IPC: 2.22407 (Simulation time: 0 hr 4 min 46 sec) 
Heartbeat CPU  1 instructions:   48000000 cycles:   19148774 heartbeat IPC: 2.49248 cumulative IPC: 2.50669 (Simulation time: 0 hr 4 min 49 sec) 
Heartbeat CPU  3 instructions:   49000000 cycles:   19254417 heartbeat IPC: 2.54533 cumulative IPC: 2.54487 (Simulation time: 0 hr 4 min 51 sec) 
Heartbeat CPU  0 instructions:   42000000 cycles:   19257291 heartbeat IPC: 2.15156 cumulative IPC: 2.18099 (Simulation time: 0 hr 4 min 51 sec) 
Heartbeat CPU  2 instructions:   43000003 cycles:   19353248 heartbeat IPC: 2.13242 cumulative IPC: 2.22185 (Simulation time: 0 hr 4 min 52 sec) 
Heartbeat CPU  1 instructions:   49000002 cycles:   19555679 heartbeat IPC: 2.45758 cumulative IPC: 2.50567 (Simulation time: 0 hr 4 min 55 sec) 
Heartbeat CPU  3 instructions:   50000001 cycles:   19646272 heartbeat IPC: 2.55197 cumulative IPC: 2.54501 (Simulation time: 0 hr 4 min 57 sec) 
Heartbeat CPU  0 instructions:   43000003 cycles:   19708054 heartbeat IPC: 2.21847 cumulative IPC: 2.18185 (Simulation time: 0 hr 4 min 58 sec) 
Heartbeat CPU  2 instructions:   44000000 cycles:   19781471 heartbeat IPC: 2.33522 cumulative IPC: 2.22430 (Simulation time: 0 hr 4 min 59 sec) 
Heartbeat CPU  1 instructions:   50000003 cycles:   19965982 heartbeat IPC: 2.43723 cumulative IPC: 2.50426 (Simulation time: 0 hr 5 min 1 sec) 
Heartbeat CPU  3 instructions:   51000002 cycles:   20040378 heartbeat IPC: 2.53739 cumulative IPC: 0.04990 (Simulation time: 0 hr 5 min 3 sec) 
Heartbeat CPU  0 instructions:   44000000 cycles:   20143426 heartbeat IPC: 2.29688 cumulative IPC: 2.18434 (Simulation time: 0 hr 5 min 4 sec) 
Heartbeat CPU  2 instructions:   45000002 cycles:   20221070 heartbeat IPC: 2.27481 cumulative IPC: 2.22540 (Simulation time: 0 hr 5 min 5 sec) 
Heartbeat CPU  1 instructions:   51000002 cycles:   20379798 heartbeat IPC: 2.41653 cumulative IPC: 0.04907 (Simulation time: 0 hr 5 min 8 sec) 
Heartbeat CPU  3 instructions:   52000000 cycles:   20450051 heartbeat IPC: 2.44097 cumulative IPC: 0.09780 (Simulation time: 0 hr 5 min 9 sec) 
Heartbeat CPU  0 instructions:   45000000 cycles:   20588634 heartbeat IPC: 2.24614 cumulative IPC: 2.18567 (Simulation time: 0 hr 5 min 11 sec) 
Heartbeat CPU  2 instructions:   46000001 cycles:   20675229 heartbeat IPC: 2.20187 cumulative IPC: 2.22488 (Simulation time: 0 hr 5 min 12 sec) 
Heartbeat CPU  1 instructions:   52000000 cycles:   20798580 heartbeat IPC: 2.38787 cumulative IPC: 0.09616 (Simulation time: 0 hr 5 min 14 sec) 
Heartbeat CPU  3 instructions:   53000002 cycles:   20844532 heartbeat IPC: 2.53498 cumulative IPC: 0.14392 (Simulation time: 0 hr 5 min 15 sec) 
Heartbeat CPU  0 instructions:   46000003 cycles:   21052270 heartbeat IPC: 2.15687 cumulative IPC: 2.18504 (Simulation time: 0 hr 5 min 18 sec) 
Heartbeat CPU  2 instructions:   47000002 cycles:   21107395 heartbeat IPC: 2.31393 cumulative IPC: 2.22671 (Simulation time: 0 hr 5 min 19 sec) 
Heartbeat CPU  1 instructions:   53000003 cycles:   21207226 heartbeat IPC: 2.44711 cumulative IPC: 0.14146 (Simulation time: 0 hr 5 min 20 sec) 
Heartbeat CPU  3 instructions:   54000001 cycles:   21236417 heartbeat IPC: 2.55177 cumulative IPC: 0.18836 (Simulation time: 0 hr 5 min 21 sec) 
Heartbeat CPU  0 instructions:   47000000 cycles:   21494844 heartbeat IPC: 2.25950 cumulative IPC: 2.18657 (Simulation time: 0 hr 5 min 25 sec) 
Heartbeat CPU  2 instructions:   48000000 cycles:   21531815 heartbeat IPC: 2.35615 cumulative IPC: 2.22926 (Simulation time: 0 hr 5 min 25 sec) 
Heartbeat CPU  1 instructions:   54000000 cycles:   21621076 heartbeat IPC: 2.41633 cumulative IPC: 0.18500 (Simulation time: 0 hr 5 min 27 sec) 
Heartbeat CPU  3 instructions:   55000001 cycles:   21629853 heartbeat IPC: 2.54171 cumulative IPC: 0.23116 (Simulation time: 0 hr 5 min 27 sec) 
Heartbeat CPU  0 instructions:   48000000 cycles:   21990895 heartbeat IPC: 2.01592 cumulative IPC: 2.18272 (Simulation time: 0 hr 5 min 32 sec) 
Heartbeat CPU  3 instructions:   56000000 cycles:   22022910 heartbeat IPC: 2.54416 cumulative IPC: 0.27244 (Simulation time: 0 hr 5 min 33 sec) 
Heartbeat CPU  2 instructions:   49000001 cycles:   22024460 heartbeat IPC: 2.02986 cumulative IPC: 2.22480 (Simulation time: 0 hr 5 min 33 sec) 
Heartbeat CPU  1 instructions:   55000003 cycles:   22032479 heartbeat IPC: 2.43071 cumulative IPC: 0.22694 (Simulation time: 0 hr 5 min 33 sec) 
Heartbeat CPU  3 instructions:   57000003 cycles:   22418281 heartbeat IPC: 2.52928 cumulative IPC: 0.31225 (Simulation time: 0 hr 5 min 39 sec) 
Heartbeat CPU  0 instructions:   49000000 cycles:   22423569 heartbeat IPC: 2.31121 cumulative IPC: 2.18520 (Simulation time: 0 hr 5 min 39 sec) 
Heartbeat CPU  2 instructions:   50000000 cycles:   22441593 heartbeat IPC: 2.39731 cumulative IPC: 2.22801 (Simulation time: 0 hr 5 min 39 sec) 
Heartbeat CPU  1 instructions:   56000000 cycles:   22451215 heartbeat IPC: 2.38813 cumulative IPC: 0.26725 (Simulation time: 0 hr 5 min 39 sec) 
Heartbeat CPU  3 instructions:   58000000 cycles:   22811711 heartbeat IPC: 2.54174 cumulative IPC: 0.35070 (Simulation time: 0 hr 5 min 45 sec) 
Heartbeat CPU  0 instructions:   50000001 cycles:   22854805 heartbeat IPC: 2.31892 cumulative IPC: 2.18772 (Simulation time: 0 hr 5 min 46 sec) 

Warmup complete CPU  0 instructions:   50000001 cycles:   22854805 (Simulation time: 0 hr 5 min 46 sec) 
Warmup complete CPU  1 instructions:   56807967 cycles:   22854804 (Simulation time: 0 hr 5 min 46 sec) 
Warmup complete CPU  2 instructions:   50968521 cycles:   22854804 (Simulation time: 0 hr 5 min 46 sec) 
Warmup complete CPU  3 instructions:   58108321 cycles:   22854805 (Simulation time: 0 hr 5 min 46 sec) 

Heartbeat CPU  2 instructions:   51000000 cycles:   23118873 heartbeat IPC: 1.47649 cumulative IPC: 0.11921 (Simulation time: 0 hr 5 min 46 sec) 
Heartbeat CPU  1 instructions:   57000000 cycles:   23403264 heartbeat IPC: 1.05037 cumulative IPC: 0.35013 (Simulation time: 0 hr 5 min 47 sec) 
Heartbeat CPU  1 instructions:   58000000 cycles:   26212210 heartbeat IPC: 0.35601 cumulative IPC: 0.35505 (Simulation time: 0 hr 5 min 52 sec) 
Heartbeat CPU  3 instructions:   59000001 cycles:   28792753 heartbeat IPC: 0.16720 cumulative IPC: 0.15017 (Simulation time: 0 hr 5 min 56 sec) 
Heartbeat CPU  1 instructions:   59000000 cycles:   29920478 heartbeat IPC: 0.26967 cumulative IPC: 0.31024 (Simulation time: 0 hr 5 min 58 sec) 
Heartbeat CPU  0 instructions:   51000001 cycles:   31377078 heartbeat IPC: 0.11734 cumulative IPC: 0.11734 (Simulation time: 0 hr 6 min 0 sec) 
Heartbeat CPU  2 instructions:   52000000 cycles:   31386285 heartbeat IPC: 0.12096 cumulative IPC: 0.12090 (Simulation time: 0 hr 6 min 1 sec) 
Heartbeat CPU  1 instructions:   60000000 cycles:   34187187 heartbeat IPC: 0.23437 cumulative IPC: 0.28167 (Simulation time: 0 hr 6 min 5 sec) 
Heartbeat CPU  3 instructions:   60000000 cycles:   35486118 heartbeat IPC: 0.14940 cumulative IPC: 0.14976 (Simulation time: 0 hr 6 min 7 sec) 
Heartbeat CPU  1 instructions:   61000001 cycles:   38832001 heartbeat IPC: 0.21529 cumulative IPC: 0.26238 (Simulation time: 0 hr 6 min 12 sec) 
Heartbeat CPU  0 instructions:   52000000 cycles:   39884433 heartbeat IPC: 0.11755 cumulative IPC: 0.11744 (Simulation time: 0 hr 6 min 14 sec) 
Heartbeat CPU  2 instructions:   53000003 cycles:   39889971 heartbeat IPC: 0.11760 cumulative IPC: 0.11925 (Simulation time: 0 hr 6 min 14 sec) 
Heartbeat CPU  3 instructions:   61000002 cycles:   42194689 heartbeat IPC: 0.14906 cumulative IPC: 0.14952 (Simulation time: 0 hr 6 min 17 sec) 
Heartbeat CPU  1 instructions:   62000002 cycles:   43375577 heartbeat IPC: 0.22009 cumulative IPC: 0.25301 (Simulation time: 0 hr 6 min 19 sec) 
Heartbeat CPU  1 instructions:   63000000 cycles:   47919968 heartbeat IPC: 0.22005 cumulative IPC: 0.24704 (Simulation time: 0 hr 6 min 26 sec) 
Heartbeat CPU  2 instructions:   54000001 cycles:   48186923 heartbeat IPC: 0.12053 cumulative IPC: 0.11967 (Simulation time: 0 hr 6 min 27 sec) 
Heartbeat CPU  0 instructions:   53000000 cycles:   48696499 heartbeat IPC: 0.11348 cumulative IPC: 0.11609 (Simulation time: 0 hr 6 min 28 sec) 
Heartbeat CPU  3 instructions:   62000001 cycles:   48894481 heartbeat IPC: 0.14926 cumulative IPC: 0.14945 (Simulation time: 0 hr 6 min 28 sec) 
Heartbeat CPU  1 instructions:   64000000 cycles:   52509005 heartbeat IPC: 0.21791 cumulative IPC: 0.24253 (Simulation time: 0 hr 6 min 34 sec) 
Heartbeat CPU  3 instructions:   63000003 cycles:   55597769 heartbeat IPC: 0.14918 cumulative IPC: 0.14940 (Simulation time: 0 hr 6 min 38 sec) 
Heartbeat CPU  2 instructions:   55000003 cycles:   56517962 heartbeat IPC: 0.12003 cumulative IPC: 0.11976 (Simulation time: 0 hr 6 min 40 sec) 
Heartbeat CPU  0 instructions:   54000001 cycles:   57259075 heartbeat IPC: 0.11679 cumulative IPC: 0.11626 (Simulation time: 0 hr 6 min 41 sec) 
Heartbeat CPU  1 instructions:   65000002 cycles:   58319436 heartbeat IPC: 0.17210 cumulative IPC: 0.23099 (Simulation time: 0 hr 6 min 42 sec) 
Heartbeat CPU  3 instructions:   64000000 cycles:   62315649 heartbeat IPC: 0.14886 cumulative IPC: 0.14930 (Simulation time: 0 hr 6 min 49 sec) 
Heartbeat CPU  1 instructions:   66000002 cycles:   64295603 heartbeat IPC: 0.16733 cumulative IPC: 0.22181 (Simulation time: 0 hr 6 min 52 sec) 
Heartbeat CPU  2 instructions:   56000000 cycles:   64824991 heartbeat IPC: 0.12038 cumulative IPC: 0.11988 (Simulation time: 0 hr 6 min 52 sec) 
Heartbeat CPU  0 instructions:   55000003 cycles:   65882915 heartbeat IPC: 0.11596 cumulative IPC: 0.11620 (Simulation time: 0 hr 6 min 54 sec) 
Heartbeat CPU  3 instructions:   65000000 cycles:   68958283 heartbeat IPC: 0.15054 cumulative IPC: 0.14948 (Simulation time: 0 hr 6 min 59 sec) 
Heartbeat CPU  2 instructions:   57000000 cycles:   69302384 heartbeat IPC: 0.22334 cumulative IPC: 0.12986 (Simulation time: 0 hr 7 min 0 sec) 
Heartbeat CPU  1 instructions:   67000003 cycles:   72694737 heartbeat IPC: 0.11906 cumulative IPC: 0.20450 (Simulation time: 0 hr 7 min 5 sec) 
Heartbeat CPU  0 instructions:   56000000 cycles:   73343839 heartbeat IPC: 0.13403 cumulative IPC: 0.11884 (Simulation time: 0 hr 7 min 6 sec) 
Heartbeat CPU  2 instructions:   58000001 cycles:   74606168 heartbeat IPC: 0.18854 cumulative IPC: 0.13587 (Simulation time: 0 hr 7 min 8 sec) 
Heartbeat CPU  3 instructions:   66000002 cycles:   75540035 heartbeat IPC: 0.15194 cumulative IPC: 0.14979 (Simulation time: 0 hr 7 min 9 sec) 
Heartbeat CPU  0 instructions:   57000001 cycles:   78108346 heartbeat IPC: 0.20989 cumulative IPC: 0.12669 (Simulation time: 0 hr 7 min 13 sec) 
Heartbeat CPU  3 instructions:   67000000 cycles:   82117929 heartbeat IPC: 0.15202 cumulative IPC: 0.15004 (Simulation time: 0 hr 7 min 19 sec) 
Heartbeat CPU  1 instructions:   68000000 cycles:   82591656 heartbeat IPC: 0.10104 cumulative IPC: 0.18736 (Simulation time: 0 hr 7 min 19 sec) 
Heartbeat CPU  2 instructions:   59000001 cycles:   82644875 heartbeat IPC: 0.12440 cumulative IPC: 0.13433 (Simulation time: 0 hr 7 min 19 sec) 
Heartbeat CPU  0 instructions:   58000003 cycles:   84425012 heartbeat IPC: 0.15831 cumulative IPC: 0.12993 (Simulation time: 0 hr 7 min 22 sec) 
Heartbeat CPU  3 instructions:   68000000 cycles:   88664361 heartbeat IPC: 0.15275 cumulative IPC: 0.15031 (Simulation time: 0 hr 7 min 28 sec) 
Heartbeat CPU  1 instructions:   69000000 cycles:   89861455 heartbeat IPC: 0.13756 cumulative IPC: 0.18195 (Simulation time: 0 hr 7 min 29 sec) 
Heartbeat CPU  2 instructions:   60000000 cycles:   90841954 heartbeat IPC: 0.12199 cumulative IPC: 0.13284 (Simulation time: 0 hr 7 min 30 sec) 
Heartbeat CPU  0 instructions:   59000003 cycles:   92846419 heartbeat IPC: 0.11875 cumulative IPC: 0.12859 (Simulation time: 0 hr 7 min 33 sec) 
Heartbeat CPU  3 instructions:   69000001 cycles:   95231478 heartbeat IPC: 0.15227 cumulative IPC: 0.15049 (Simulation time: 0 hr 7 min 37 sec) 
Heartbeat CPU  1 instructions:   70000002 cycles:   95393656 heartbeat IPC: 0.18076 cumulative IPC: 0.18186 (Simulation time: 0 hr 7 min 37 sec) 
Heartbeat CPU  1 instructions:   71000002 cycles:   98395563 heartbeat IPC: 0.33312 cumulative IPC: 0.18787 (Simulation time: 0 hr 7 min 42 sec) 
Heartbeat CPU  2 instructions:   61000001 cycles:   99055079 heartbeat IPC: 0.12176 cumulative IPC: 0.13165 (Simulation time: 0 hr 7 min 43 sec) 
Heartbeat CPU  0 instructions:   60000000 cycles:  101332967 heartbeat IPC: 0.11783 cumulative IPC: 0.12742 (Simulation time: 0 hr 7 min 47 sec) 
Heartbeat CPU  3 instructions:   70000000 cycles:  101800045 heartbeat IPC: 0.15224 cumulative IPC: 0.15063 (Simulation time: 0 hr 7 min 47 sec) 
Heartbeat CPU  1 instructions:   72000000 cycles:  102845679 heartbeat IPC: 0.22471 cumulative IPC: 0.18992 (Simulation time: 0 hr 7 min 49 sec) 
Heartbeat CPU  1 instructions:   73000001 cycles:  106442542 heartbeat IPC: 0.27802 cumulative IPC: 0.19371 (Simulation time: 0 hr 7 min 55 sec) 
Heartbeat CPU  2 instructions:   62000002 cycles:  107336055 heartbeat IPC: 0.12076 cumulative IPC: 0.13058 (Simulation time: 0 hr 7 min 56 sec) 
Heartbeat CPU  3 instructions:   71000000 cycles:  108383213 heartbeat IPC: 0.15190 cumulative IPC: 0.15073 (Simulation time: 0 hr 7 min 58 sec) 
Heartbeat CPU  1 instructions:   74000001 cycles:  109660962 heartbeat IPC: 0.31071 cumulative IPC: 0.19805 (Simulation time: 0 hr 8 min 0 sec) 
Heartbeat CPU  0 instructions:   61000000 cycles:  109768009 heartbeat IPC: 0.11855 cumulative IPC: 0.12656 (Simulation time: 0 hr 8 min 1 sec) 
Heartbeat CPU  1 instructions:   75000001 cycles:  113135942 heartbeat IPC: 0.28777 cumulative IPC: 0.20150 (Simulation time: 0 hr 8 min 6 sec) 
Heartbeat CPU  3 instructions:   72000000 cycles:  114982199 heartbeat IPC: 0.15154 cumulative IPC: 0.15079 (Simulation time: 0 hr 8 min 9 sec) 
Heartbeat CPU  2 instructions:   63000000 cycles:  115656049 heartbeat IPC: 0.12019 cumulative IPC: 0.12965 (Simulation time: 0 hr 8 min 10 sec) 
Heartbeat CPU  1 instructions:   76000000 cycles:  117500938 heartbeat IPC: 0.22910 cumulative IPC: 0.20278 (Simulation time: 0 hr 8 min 13 sec) 
Heartbeat CPU  0 instructions:   62000001 cycles:  118275748 heartbeat IPC: 0.11754 cumulative IPC: 0.12576 (Simulation time: 0 hr 8 min 14 sec) 
Heartbeat CPU  3 instructions:   73000001 cycles:  121511622 heartbeat IPC: 0.15315 cumulative IPC: 0.15094 (Simulation time: 0 hr 8 min 19 sec) 
Heartbeat CPU  1 instructions:   77000002 cycles:  121766197 heartbeat IPC: 0.23445 cumulative IPC: 0.20414 (Simulation time: 0 hr 8 min 19 sec) 
Heartbeat CPU  2 instructions:   64000000 cycles:  123917915 heartbeat IPC: 0.12104 cumulative IPC: 0.12894 (Simulation time: 0 hr 8 min 22 sec) 
Heartbeat CPU  0 instructions:   63000000 cycles:  126703505 heartbeat IPC: 0.11866 cumulative IPC: 0.12518 (Simulation time: 0 hr 8 min 26 sec) 
Heartbeat CPU  3 instructions:   74000001 cycles:  128109117 heartbeat IPC: 0.15157 cumulative IPC: 0.15098 (Simulation time: 0 hr 8 min 28 sec) 
Heartbeat CPU  1 instructions:   78000000 cycles:  128702114 heartbeat IPC: 0.14418 cumulative IPC: 0.20021 (Simulation time: 0 hr 8 min 29 sec) 
Heartbeat CPU  2 instructions:   65000001 cycles:  132150464 heartbeat IPC: 0.12147 cumulative IPC: 0.12838 (Simulation time: 0 hr 8 min 33 sec) 
Heartbeat CPU  3 instructions:   75000000 cycles:  134670773 heartbeat IPC: 0.15240 cumulative IPC: 0.15107 (Simulation time: 0 hr 8 min 37 sec) 
Heartbeat CPU  0 instructions:   64000000 cycles:  135221010 heartbeat IPC: 0.11741 cumulative IPC: 0.12459 (Simulation time: 0 hr 8 min 38 sec) 
Heartbeat CPU  1 instructions:   79000001 cycles:  135809907 heartbeat IPC: 0.14069 cumulative IPC: 0.19647 (Simulation time: 0 hr 8 min 38 sec) 
Heartbeat CPU  2 instructions:   66000002 cycles:  140392415 heartbeat IPC: 0.12133 cumulative IPC: 0.12789 (Simulation time: 0 hr 8 min 45 sec) 
Heartbeat CPU  3 instructions:   76000000 cycles:  141252315 heartbeat IPC: 0.15194 cumulative IPC: 0.15112 (Simulation time: 0 hr 8 min 46 sec) 
Heartbeat CPU  1 instructions:   80000000 cycles:  142900364 heartbeat IPC: 0.14103 cumulative IPC: 0.19319 (Simulation time: 0 hr 8 min 48 sec) 
Heartbeat CPU  0 instructions:   65000002 cycles:  143717638 heartbeat IPC: 0.11769 cumulative IPC: 0.12411 (Simulation time: 0 hr 8 min 49 sec) 
Heartbeat CPU  3 instructions:   77000003 cycles:  147824667 heartbeat IPC: 0.15215 cumulative IPC: 0.15117 (Simulation time: 0 hr 8 min 55 sec) 
Heartbeat CPU  2 instructions:   67000002 cycles:  148683667 heartbeat IPC: 0.12061 cumulative IPC: 0.12741 (Simulation time: 0 hr 8 min 56 sec) 
Heartbeat CPU  1 instructions:   81000000 cycles:  149950897 heartbeat IPC: 0.14183 cumulative IPC: 0.19034 (Simulation time: 0 hr 8 min 58 sec) 
Heartbeat CPU  0 instructions:   66000001 cycles:  152248787 heartbeat IPC: 0.11722 cumulative IPC: 0.12365 (Simulation time: 0 hr 9 min 1 sec) 
Heartbeat CPU  3 instructions:   78000002 cycles:  154354043 heartbeat IPC: 0.15315 cumulative IPC: 0.15127 (Simulation time: 0 hr 9 min 4 sec) 
Heartbeat CPU  1 instructions:   82000001 cycles:  156952919 heartbeat IPC: 0.14282 cumulative IPC: 0.18786 (Simulation time: 0 hr 9 min 7 sec) 
Heartbeat CPU  2 instructions:   68000000 cycles:  157201887 heartbeat IPC: 0.11740 cumulative IPC: 0.12677 (Simulation time: 0 hr 9 min 8 sec) 
Heartbeat CPU  0 instructions:   67000001 cycles:  160771930 heartbeat IPC: 0.11733 cumulative IPC: 0.12326 (Simulation time: 0 hr 9 min 13 sec) 
Heartbeat CPU  3 instructions:   79000003 cycles:  160792456 heartbeat IPC: 0.15532 cumulative IPC: 0.15146 (Simulation time: 0 hr 9 min 13 sec) 
Heartbeat CPU  1 instructions:   83000002 cycles:  163954099 heartbeat IPC: 0.14283 cumulative IPC: 0.18563 (Simulation time: 0 hr 9 min 17 sec) 
Heartbeat CPU  2 instructions:   69000000 cycles:  165481159 heartbeat IPC: 0.12078 cumulative IPC: 0.12642 (Simulation time: 0 hr 9 min 19 sec) 
Heartbeat CPU  3 instructions:   80000000 cycles:  167366418 heartbeat IPC: 0.15211 cumulative IPC: 0.15149 (Simulation time: 0 hr 9 min 22 sec) 
Heartbeat CPU  0 instructions:   68000000 cycles:  169566623 heartbeat IPC: 0.11370 cumulative IPC: 0.12269 (Simulation time: 0 hr 9 min 25 sec) 
Heartbeat CPU  1 instructions:   84000000 cycles:  170977049 heartbeat IPC: 0.14239 cumulative IPC: 0.18358 (Simulation time: 0 hr 9 min 27 sec) 
Heartbeat CPU  2 instructions:   70000003 cycles:  173804366 heartbeat IPC: 0.12015 cumulative IPC: 0.12608 (Simulation time: 0 hr 9 min 31 sec) 
Heartbeat CPU  3 instructions:   81000000 cycles:  173915372 heartbeat IPC: 0.15270 cumulative IPC: 0.15154 (Simulation time: 0 hr 9 min 31 sec) 
Heartbeat CPU  1 instructions:   85000001 cycles:  178005953 heartbeat IPC: 0.14227 cumulative IPC: 0.18171 (Simulation time: 0 hr 9 min 36 sec) 
Heartbeat CPU  0 instructions:   69000002 cycles:  178125814 heartbeat IPC: 0.11683 cumulative IPC: 0.12237 (Simulation time: 0 hr 9 min 37 sec) 
Heartbeat CPU  3 instructions:   82000001 cycles:  180450689 heartbeat IPC: 0.15301 cumulative IPC: 0.15160 (Simulation time: 0 hr 9 min 40 sec) 
Heartbeat CPU  2 instructions:   71000001 cycles:  180869882 heartbeat IPC: 0.14153 cumulative IPC: 0.12677 (Simulation time: 0 hr 9 min 41 sec) 
Heartbeat CPU  1 instructions:   86000000 cycles:  185053994 heartbeat IPC: 0.14188 cumulative IPC: 0.17998 (Simulation time: 0 hr 9 min 48 sec) 
Heartbeat CPU  2 instructions:   72000000 cycles:  185305890 heartbeat IPC: 0.22543 cumulative IPC: 0.12946 (Simulation time: 0 hr 9 min 48 sec) 
Heartbeat CPU  0 instructions:   70000000 cycles:  186730473 heartbeat IPC: 0.11622 cumulative IPC: 0.12204 (Simulation time: 0 hr 9 min 50 sec) 
Heartbeat CPU  3 instructions:   83000003 cycles:  186964426 heartbeat IPC: 0.15352 cumulative IPC: 0.15168 (Simulation time: 0 hr 9 min 51 sec) 
Heartbeat CPU  2 instructions:   73000001 cycles:  191283750 heartbeat IPC: 0.16728 cumulative IPC: 0.13081 (Simulation time: 0 hr 9 min 57 sec) 
Heartbeat CPU  1 instructions:   87000001 cycles:  192156199 heartbeat IPC: 0.14080 cumulative IPC: 0.17833 (Simulation time: 0 hr 9 min 59 sec) 
Heartbeat CPU  0 instructions:   71000002 cycles:  192758253 heartbeat IPC: 0.16590 cumulative IPC: 0.12360 (Simulation time: 0 hr 9 min 59 sec) 
Heartbeat CPU  3 instructions:   84000000 cycles:  193516686 heartbeat IPC: 0.15262 cumulative IPC: 0.15171 (Simulation time: 0 hr 10 min 1 sec) 
Heartbeat CPU  0 instructions:   72000000 cycles:  197501303 heartbeat IPC: 0.21083 cumulative IPC: 0.12597 (Simulation time: 0 hr 10 min 7 sec) 
Heartbeat CPU  1 instructions:   88000000 cycles:  199255823 heartbeat IPC: 0.14085 cumulative IPC: 0.17682 (Simulation time: 0 hr 10 min 10 sec) 
Heartbeat CPU  2 instructions:   74000000 cycles:  199440461 heartbeat IPC: 0.12260 cumulative IPC: 0.13043 (Simulation time: 0 hr 10 min 10 sec) 
Heartbeat CPU  3 instructions:   85000003 cycles:  200044263 heartbeat IPC: 0.15320 cumulative IPC: 0.15177 (Simulation time: 0 hr 10 min 11 sec) 
Heartbeat CPU  0 instructions:   73000000 cycles:  204810176 heartbeat IPC: 0.13682 cumulative IPC: 0.12640 (Simulation time: 0 hr 10 min 17 sec) 
Heartbeat CPU  1 instructions:   89000003 cycles:  206373142 heartbeat IPC: 0.14050 cumulative IPC: 0.17542 (Simulation time: 0 hr 10 min 20 sec) 
Heartbeat CPU  3 instructions:   86000003 cycles:  206609006 heartbeat IPC: 0.15233 cumulative IPC: 0.15179 (Simulation time: 0 hr 10 min 20 sec) 
Heartbeat CPU  2 instructions:   75000003 cycles:  207644517 heartbeat IPC: 0.12189 cumulative IPC: 0.13005 (Simulation time: 0 hr 10 min 21 sec) 
Heartbeat CPU  3 instructions:   87000003 cycles:  213179274 heartbeat IPC: 0.15220 cumulative IPC: 0.15180 (Simulation time: 0 hr 10 min 29 sec) 
Heartbeat CPU  0 instructions:   74000002 cycles:  213208814 heartbeat IPC: 0.11907 cumulative IPC: 0.12608 (Simulation time: 0 hr 10 min 29 sec) 
Heartbeat CPU  1 instructions:   90000000 cycles:  213464278 heartbeat IPC: 0.14102 cumulative IPC: 0.17414 (Simulation time: 0 hr 10 min 29 sec) 
Heartbeat CPU  2 instructions:   76000000 cycles:  215795010 heartbeat IPC: 0.12269 cumulative IPC: 0.12974 (Simulation time: 0 hr 10 min 33 sec) 
Heartbeat CPU  3 instructions:   88000000 cycles:  219726254 heartbeat IPC: 0.15274 cumulative IPC: 0.15183 (Simulation time: 0 hr 10 min 38 sec) 
Heartbeat CPU  1 instructions:   91000002 cycles:  220558475 heartbeat IPC: 0.14096 cumulative IPC: 0.17295 (Simulation time: 0 hr 10 min 39 sec) 
Heartbeat CPU  0 instructions:   75000003 cycles:  221633094 heartbeat IPC: 0.11870 cumulative IPC: 0.12577 (Simulation time: 0 hr 10 min 41 sec) 
Heartbeat CPU  2 instructions:   77000001 cycles:  224039339 heartbeat IPC: 0.12130 cumulative IPC: 0.12939 (Simulation time: 0 hr 10 min 44 sec) 
Heartbeat CPU  3 instructions:   89000001 cycles:  226279469 heartbeat IPC: 0.15260 cumulative IPC: 0.15186 (Simulation time: 0 hr 10 min 47 sec) 
Heartbeat CPU  1 instructions:   92000000 cycles:  227649472 heartbeat IPC: 0.14102 cumulative IPC: 0.17184 (Simulation time: 0 hr 10 min 49 sec) 
Heartbeat CPU  0 instructions:   76000000 cycles:  230101377 heartbeat IPC: 0.11809 cumulative IPC: 0.12545 (Simulation time: 0 hr 10 min 53 sec) 
Heartbeat CPU  2 instructions:   78000002 cycles:  232312290 heartbeat IPC: 0.12088 cumulative IPC: 0.12905 (Simulation time: 0 hr 10 min 56 sec) 
Heartbeat CPU  3 instructions:   90000001 cycles:  232850210 heartbeat IPC: 0.15219 cumulative IPC: 0.15187 (Simulation time: 0 hr 10 min 56 sec) 
Heartbeat CPU  1 instructions:   93000000 cycles:  234657566 heartbeat IPC: 0.14269 cumulative IPC: 0.17088 (Simulation time: 0 hr 10 min 59 sec) 
Heartbeat CPU  0 instructions:   77000000 cycles:  238606371 heartbeat IPC: 0.11758 cumulative IPC: 0.12514 (Simulation time: 0 hr 11 min 5 sec) 
Heartbeat CPU  3 instructions:   91000003 cycles:  239020719 heartbeat IPC: 0.16206 cumulative IPC: 0.15216 (Simulation time: 0 hr 11 min 5 sec) 
Heartbeat CPU  2 instructions:   79000000 cycles:  240538558 heartbeat IPC: 0.12156 cumulative IPC: 0.12877 (Simulation time: 0 hr 11 min 8 sec) 
Heartbeat CPU  1 instructions:   94000001 cycles:  241689903 heartbeat IPC: 0.14220 cumulative IPC: 0.16995 (Simulation time: 0 hr 11 min 9 sec) 
Heartbeat CPU  3 instructions:   92000000 cycles:  244558499 heartbeat IPC: 0.18058 cumulative IPC: 0.15287 (Simulation time: 0 hr 11 min 14 sec) 
Heartbeat CPU  0 instructions:   78000001 cycles:  247037372 heartbeat IPC: 0.11861 cumulative IPC: 0.12490 (Simulation time: 0 hr 11 min 17 sec) 
Heartbeat CPU  2 instructions:   80000000 cycles:  248732357 heartbeat IPC: 0.12204 cumulative IPC: 0.12853 (Simulation time: 0 hr 11 min 20 sec) 
Heartbeat CPU  1 instructions:   95000002 cycles:  248747769 heartbeat IPC: 0.14169 cumulative IPC: 0.16907 (Simulation time: 0 hr 11 min 20 sec) 
Heartbeat CPU  3 instructions:   93000000 cycles:  250962298 heartbeat IPC: 0.15616 cumulative IPC: 0.15296 (Simulation time: 0 hr 11 min 23 sec) 
Heartbeat CPU  0 instructions:   79000002 cycles:  255531556 heartbeat IPC: 0.11773 cumulative IPC: 0.12464 (Simulation time: 0 hr 11 min 29 sec) 
Heartbeat CPU  1 instructions:   96000000 cycles:  255779609 heartbeat IPC: 0.14221 cumulative IPC: 0.16826 (Simulation time: 0 hr 11 min 29 sec) 
Heartbeat CPU  2 instructions:   81000003 cycles:  256975772 heartbeat IPC: 0.12131 cumulative IPC: 0.12827 (Simulation time: 0 hr 11 min 31 sec) 
Heartbeat CPU  3 instructions:   94000000 cycles:  257883891 heartbeat IPC: 0.14448 cumulative IPC: 0.15271 (Simulation time: 0 hr 11 min 32 sec) 
Heartbeat CPU  1 instructions:   97000001 cycles:  262861663 heartbeat IPC: 0.14120 cumulative IPC: 0.16746 (Simulation time: 0 hr 11 min 39 sec) 
Heartbeat CPU  0 instructions:   80000000 cycles:  264036960 heartbeat IPC: 0.11757 cumulative IPC: 0.12439 (Simulation time: 0 hr 11 min 41 sec) 
Heartbeat CPU  3 instructions:   95000001 cycles:  264868973 heartbeat IPC: 0.14316 cumulative IPC: 0.15244 (Simulation time: 0 hr 11 min 42 sec) 
Heartbeat CPU  2 instructions:   82000002 cycles:  265220946 heartbeat IPC: 0.12128 cumulative IPC: 0.12804 (Simulation time: 0 hr 11 min 42 sec) 
Heartbeat CPU  1 instructions:   98000002 cycles:  269946799 heartbeat IPC: 0.14114 cumulative IPC: 0.16671 (Simulation time: 0 hr 11 min 49 sec) 
Heartbeat CPU  3 instructions:   96000000 cycles:  271869109 heartbeat IPC: 0.14285 cumulative IPC: 0.15217 (Simulation time: 0 hr 11 min 52 sec) 
Heartbeat CPU  0 instructions:   81000000 cycles:  272520355 heartbeat IPC: 0.11788 cumulative IPC: 0.12417 (Simulation time: 0 hr 11 min 53 sec) 
Heartbeat CPU  2 instructions:   83000001 cycles:  273735990 heartbeat IPC: 0.11744 cumulative IPC: 0.12768 (Simulation time: 0 hr 11 min 54 sec) 
Heartbeat CPU  1 instructions:   99000000 cycles:  277021672 heartbeat IPC: 0.14135 cumulative IPC: 0.16600 (Simulation time: 0 hr 11 min 59 sec) 
Heartbeat CPU  3 instructions:   97000001 cycles:  278885176 heartbeat IPC: 0.14253 cumulative IPC: 0.15190 (Simulation time: 0 hr 12 min 1 sec) 
Heartbeat CPU  0 instructions:   82000001 cycles:  281289107 heartbeat IPC: 0.11404 cumulative IPC: 0.12382 (Simulation time: 0 hr 12 min 5 sec) 
Heartbeat CPU  2 instructions:   84000000 cycles:  282044430 heartbeat IPC: 0.12036 cumulative IPC: 0.12744 (Simulation time: 0 hr 12 min 6 sec) 
*** Reached end of trace for Core: 1 Repeating trace: /data3/CLOUD9/traces/cloud9_phase2_core1.trace.xz
Heartbeat CPU  1 instructions:  100000000 cycles:  284155457 heartbeat IPC: 0.14018 cumulative IPC: 0.16530 (Simulation time: 0 hr 12 min 9 sec) 
Heartbeat CPU  3 instructions:   98000002 cycles:  285902100 heartbeat IPC: 0.14251 cumulative IPC: 0.15165 (Simulation time: 0 hr 12 min 11 sec) 
Heartbeat CPU  0 instructions:   83000001 cycles:  289786134 heartbeat IPC: 0.11769 cumulative IPC: 0.12363 (Simulation time: 0 hr 12 min 16 sec) 
Heartbeat CPU  2 instructions:   85000002 cycles:  290368354 heartbeat IPC: 0.12014 cumulative IPC: 0.12721 (Simulation time: 0 hr 12 min 17 sec) 
Heartbeat CPU  1 instructions:  101000002 cycles:  291342548 heartbeat IPC: 0.13914 cumulative IPC: 0.16460 (Simulation time: 0 hr 12 min 18 sec) 
Heartbeat CPU  3 instructions:   99000002 cycles:  292912570 heartbeat IPC: 0.14264 cumulative IPC: 0.15142 (Simulation time: 0 hr 12 min 21 sec) 
Heartbeat CPU  2 instructions:   86000000 cycles:  296261483 heartbeat IPC: 0.16969 cumulative IPC: 0.12813 (Simulation time: 0 hr 12 min 26 sec) 
Heartbeat CPU  0 instructions:   84000000 cycles:  298333296 heartbeat IPC: 0.11700 cumulative IPC: 0.12342 (Simulation time: 0 hr 12 min 29 sec) 
Heartbeat CPU  1 instructions:  102000003 cycles:  298479590 heartbeat IPC: 0.14011 cumulative IPC: 0.16396 (Simulation time: 0 hr 12 min 29 sec) 
*** Reached end of trace for Core: 3 Repeating trace: /data3/CLOUD9/traces/cloud9_phase2_core3.trace.xz
Heartbeat CPU  3 instructions:  100000000 cycles:  299928481 heartbeat IPC: 0.14253 cumulative IPC: 0.15119 (Simulation time: 0 hr 12 min 32 sec) 
Heartbeat CPU  2 instructions:   87000002 cycles:  300866238 heartbeat IPC: 0.21717 cumulative IPC: 0.12960 (Simulation time: 0 hr 12 min 33 sec) 
Heartbeat CPU  1 instructions:  103000002 cycles:  305594918 heartbeat IPC: 0.14054 cumulative IPC: 0.16337 (Simulation time: 0 hr 12 min 40 sec) 
Heartbeat CPU  3 instructions:  101000000 cycles:  306281913 heartbeat IPC: 0.15740 cumulative IPC: 0.15133 (Simulation time: 0 hr 12 min 41 sec) 
Heartbeat CPU  0 instructions:   85000003 cycles:  306912374 heartbeat IPC: 0.11656 cumulative IPC: 0.12321 (Simulation time: 0 hr 12 min 42 sec) 
Heartbeat CPU  2 instructions:   88000000 cycles:  307973805 heartbeat IPC: 0.14069 cumulative IPC: 0.12988 (Simulation time: 0 hr 12 min 43 sec) 
Heartbeat CPU  0 instructions:   86000000 cycles:  311595179 heartbeat IPC: 0.21355 cumulative IPC: 0.12468 (Simulation time: 0 hr 12 min 49 sec) 
Heartbeat CPU  3 instructions:  102000002 cycles:  312513395 heartbeat IPC: 0.16048 cumulative IPC: 0.15153 (Simulation time: 0 hr 12 min 51 sec) 
Heartbeat CPU  1 instructions:  104000000 cycles:  312686531 heartbeat IPC: 0.14101 cumulative IPC: 0.16283 (Simulation time: 0 hr 12 min 51 sec) 
Heartbeat CPU  2 instructions:   89000000 cycles:  316156767 heartbeat IPC: 0.12221 cumulative IPC: 0.12967 (Simulation time: 0 hr 12 min 56 sec) 
Heartbeat CPU  0 instructions:   87000002 cycles:  316756063 heartbeat IPC: 0.19377 cumulative IPC: 0.12589 (Simulation time: 0 hr 12 min 57 sec) 
Heartbeat CPU  3 instructions:  103000001 cycles:  318907898 heartbeat IPC: 0.15638 cumulative IPC: 0.15163 (Simulation time: 0 hr 13 min 0 sec) 
Heartbeat CPU  1 instructions:  105000003 cycles:  319748445 heartbeat IPC: 0.14161 cumulative IPC: 0.16232 (Simulation time: 0 hr 13 min 1 sec) 
Heartbeat CPU  2 instructions:   90000001 cycles:  324404149 heartbeat IPC: 0.12125 cumulative IPC: 0.12944 (Simulation time: 0 hr 13 min 8 sec) 
Heartbeat CPU  0 instructions:   88000000 cycles:  324841959 heartbeat IPC: 0.12367 cumulative IPC: 0.12583 (Simulation time: 0 hr 13 min 9 sec) 
Heartbeat CPU  3 instructions:  104000000 cycles:  325262308 heartbeat IPC: 0.15737 cumulative IPC: 0.15175 (Simulation time: 0 hr 13 min 9 sec) 
Heartbeat CPU  1 instructions:  106000002 cycles:  326868164 heartbeat IPC: 0.14045 cumulative IPC: 0.16181 (Simulation time: 0 hr 13 min 11 sec) 
Heartbeat CPU  3 instructions:  105000002 cycles:  331619679 heartbeat IPC: 0.15730 cumulative IPC: 0.15187 (Simulation time: 0 hr 13 min 18 sec) 
Heartbeat CPU  2 instructions:   91000003 cycles:  332696692 heartbeat IPC: 0.12059 cumulative IPC: 0.12920 (Simulation time: 0 hr 13 min 20 sec) 
Heartbeat CPU  0 instructions:   89000000 cycles:  333235142 heartbeat IPC: 0.11914 cumulative IPC: 0.12565 (Simulation time: 0 hr 13 min 20 sec) 
Heartbeat CPU  1 instructions:  107000000 cycles:  333961130 heartbeat IPC: 0.14098 cumulative IPC: 0.16133 (Simulation time: 0 hr 13 min 21 sec) 
Heartbeat CPU  3 instructions:  106000002 cycles:  337986830 heartbeat IPC: 0.15706 cumulative IPC: 0.15197 (Simulation time: 0 hr 13 min 27 sec) 
Heartbeat CPU  2 instructions:   92000000 cycles:  341016637 heartbeat IPC: 0.12019 cumulative IPC: 0.12896 (Simulation time: 0 hr 13 min 31 sec) 
Heartbeat CPU  1 instructions:  108000000 cycles:  341040033 heartbeat IPC: 0.14126 cumulative IPC: 0.16089 (Simulation time: 0 hr 13 min 31 sec) 
Heartbeat CPU  0 instructions:   90000001 cycles:  341643435 heartbeat IPC: 0.11893 cumulative IPC: 0.12547 (Simulation time: 0 hr 13 min 32 sec) 
Heartbeat CPU  3 instructions:  107000001 cycles:  344349142 heartbeat IPC: 0.15718 cumulative IPC: 0.15208 (Simulation time: 0 hr 13 min 36 sec) 
Heartbeat CPU  1 instructions:  109000000 cycles:  348080093 heartbeat IPC: 0.14204 cumulative IPC: 0.16048 (Simulation time: 0 hr 13 min 41 sec) 
Heartbeat CPU  2 instructions:   93000003 cycles:  349290276 heartbeat IPC: 0.12087 cumulative IPC: 0.12876 (Simulation time: 0 hr 13 min 43 sec) 
Heartbeat CPU  0 instructions:   91000000 cycles:  350138763 heartbeat IPC: 0.11771 cumulative IPC: 0.12527 (Simulation time: 0 hr 13 min 44 sec) 
Heartbeat CPU  3 instructions:  108000000 cycles:  350706441 heartbeat IPC: 0.15730 cumulative IPC: 0.15218 (Simulation time: 0 hr 13 min 45 sec) 
Heartbeat CPU  1 instructions:  110000001 cycles:  355080554 heartbeat IPC: 0.14285 cumulative IPC: 0.16011 (Simulation time: 0 hr 13 min 51 sec) 
Heartbeat CPU  3 instructions:  109000003 cycles:  357087004 heartbeat IPC: 0.15673 cumulative IPC: 0.15226 (Simulation time: 0 hr 13 min 54 sec) 
Heartbeat CPU  2 instructions:   94000003 cycles:  357528325 heartbeat IPC: 0.12139 cumulative IPC: 0.12858 (Simulation time: 0 hr 13 min 55 sec) 
Heartbeat CPU  0 instructions:   92000000 cycles:  358597973 heartbeat IPC: 0.11821 cumulative IPC: 0.12510 (Simulation time: 0 hr 13 min 56 sec) 
Heartbeat CPU  1 instructions:  111000001 cycles:  362184839 heartbeat IPC: 0.14076 cumulative IPC: 0.15970 (Simulation time: 0 hr 14 min 1 sec) 
Heartbeat CPU  3 instructions:  110000000 cycles:  363460393 heartbeat IPC: 0.15690 cumulative IPC: 0.15235 (Simulation time: 0 hr 14 min 3 sec) 
Heartbeat CPU  2 instructions:   95000000 cycles:  365784963 heartbeat IPC: 0.12111 cumulative IPC: 0.12840 (Simulation time: 0 hr 14 min 6 sec) 
Heartbeat CPU  0 instructions:   93000003 cycles:  367026569 heartbeat IPC: 0.11864 cumulative IPC: 0.12494 (Simulation time: 0 hr 14 min 8 sec) 
Heartbeat CPU  1 instructions:  112000000 cycles:  369299006 heartbeat IPC: 0.14056 cumulative IPC: 0.15931 (Simulation time: 0 hr 14 min 11 sec) 
Heartbeat CPU  3 instructions:  111000003 cycles:  369864900 heartbeat IPC: 0.15614 cumulative IPC: 0.15242 (Simulation time: 0 hr 14 min 12 sec) 
Heartbeat CPU  2 instructions:   96000000 cycles:  374084382 heartbeat IPC: 0.12049 cumulative IPC: 0.12821 (Simulation time: 0 hr 14 min 18 sec) 
Heartbeat CPU  0 instructions:   94000003 cycles:  375515182 heartbeat IPC: 0.11780 cumulative IPC: 0.12477 (Simulation time: 0 hr 14 min 20 sec) 
Heartbeat CPU  3 instructions:  112000000 cycles:  376256523 heartbeat IPC: 0.15645 cumulative IPC: 0.15249 (Simulation time: 0 hr 14 min 21 sec) 
Heartbeat CPU  1 instructions:  113000003 cycles:  376404011 heartbeat IPC: 0.14075 cumulative IPC: 0.15894 (Simulation time: 0 hr 14 min 21 sec) 
Heartbeat CPU  2 instructions:   97000002 cycles:  382639958 heartbeat IPC: 0.11688 cumulative IPC: 0.12794 (Simulation time: 0 hr 14 min 30 sec) 
Heartbeat CPU  3 instructions:  113000000 cycles:  382657183 heartbeat IPC: 0.15623 cumulative IPC: 0.15256 (Simulation time: 0 hr 14 min 30 sec) 
Heartbeat CPU  1 instructions:  114000003 cycles:  383553713 heartbeat IPC: 0.13987 cumulative IPC: 0.15856 (Simulation time: 0 hr 14 min 31 sec) 
Heartbeat CPU  0 instructions:   95000000 cycles:  384016967 heartbeat IPC: 0.11762 cumulative IPC: 0.12460 (Simulation time: 0 hr 14 min 31 sec) 
Heartbeat CPU  3 instructions:  114000003 cycles:  389177152 heartbeat IPC: 0.15338 cumulative IPC: 0.15258 (Simulation time: 0 hr 14 min 39 sec) 
Heartbeat CPU  1 instructions:  115000002 cycles:  390641717 heartbeat IPC: 0.14108 cumulative IPC: 0.15822 (Simulation time: 0 hr 14 min 41 sec) 
Heartbeat CPU  2 instructions:   98000003 cycles:  390938532 heartbeat IPC: 0.12050 cumulative IPC: 0.12777 (Simulation time: 0 hr 14 min 41 sec) 
Heartbeat CPU  0 instructions:   96000000 cycles:  392477724 heartbeat IPC: 0.11819 cumulative IPC: 0.12445 (Simulation time: 0 hr 14 min 43 sec) 
Heartbeat CPU  3 instructions:  115000002 cycles:  395672195 heartbeat IPC: 0.15396 cumulative IPC: 0.15260 (Simulation time: 0 hr 14 min 48 sec) 
Heartbeat CPU  1 instructions:  116000000 cycles:  397660284 heartbeat IPC: 0.14248 cumulative IPC: 0.15793 (Simulation time: 0 hr 14 min 50 sec) 
Heartbeat CPU  2 instructions:   99000001 cycles:  399298600 heartbeat IPC: 0.11962 cumulative IPC: 0.12759 (Simulation time: 0 hr 14 min 53 sec) 
Heartbeat CPU  0 instructions:   97000000 cycles:  401245587 heartbeat IPC: 0.11405 cumulative IPC: 0.12421 (Simulation time: 0 hr 14 min 55 sec) 
Heartbeat CPU  3 instructions:  116000000 cycles:  402147692 heartbeat IPC: 0.15443 cumulative IPC: 0.15263 (Simulation time: 0 hr 14 min 57 sec) 
Heartbeat CPU  1 instructions:  117000003 cycles:  404746072 heartbeat IPC: 0.14113 cumulative IPC: 0.15762 (Simulation time: 0 hr 15 min 0 sec) 
*** Reached end of trace for Core: 2 Repeating trace: /data3/CLOUD9/traces/cloud9_phase2_core2.trace.xz
Heartbeat CPU  2 instructions:  100000000 cycles:  407643840 heartbeat IPC: 0.11983 cumulative IPC: 0.12742 (Simulation time: 0 hr 15 min 4 sec) 
Heartbeat CPU  3 instructions:  117000001 cycles:  408646906 heartbeat IPC: 0.15386 cumulative IPC: 0.15265 (Simulation time: 0 hr 15 min 6 sec) 
Heartbeat CPU  0 instructions:   98000003 cycles:  409764026 heartbeat IPC: 0.11739 cumulative IPC: 0.12406 (Simulation time: 0 hr 15 min 7 sec) 
Heartbeat CPU  1 instructions:  118000001 cycles:  411802850 heartbeat IPC: 0.14171 cumulative IPC: 0.15733 (Simulation time: 0 hr 15 min 10 sec) 
Heartbeat CPU  3 instructions:  118000002 cycles:  415135023 heartbeat IPC: 0.15413 cumulative IPC: 0.15268 (Simulation time: 0 hr 15 min 15 sec) 
Heartbeat CPU  2 instructions:  101000002 cycles:  415854900 heartbeat IPC: 0.12179 cumulative IPC: 0.12731 (Simulation time: 0 hr 15 min 16 sec) 
Heartbeat CPU  0 instructions:   99000003 cycles:  418323146 heartbeat IPC: 0.11683 cumulative IPC: 0.12390 (Simulation time: 0 hr 15 min 19 sec) 
Heartbeat CPU  1 instructions:  119000001 cycles:  418894775 heartbeat IPC: 0.14101 cumulative IPC: 0.15703 (Simulation time: 0 hr 15 min 20 sec) 
Heartbeat CPU  3 instructions:  119000002 cycles:  421620135 heartbeat IPC: 0.15420 cumulative IPC: 0.15270 (Simulation time: 0 hr 15 min 23 sec) 
Heartbeat CPU  2 instructions:  102000001 cycles:  424085147 heartbeat IPC: 0.12150 cumulative IPC: 0.12719 (Simulation time: 0 hr 15 min 27 sec) 
*** Reached end of trace for Core: 0 Repeating trace: /data3/CLOUD9/traces/cloud9_phase2_core0.trace.xz
Heartbeat CPU  0 instructions:  100000000 cycles:  425711665 heartbeat IPC: 0.13534 cumulative IPC: 0.12411 (Simulation time: 0 hr 15 min 29 sec) 
Heartbeat CPU  1 instructions:  120000000 cycles:  426018512 heartbeat IPC: 0.14038 cumulative IPC: 0.15674 (Simulation time: 0 hr 15 min 30 sec) 
Heartbeat CPU  3 instructions:  120000000 cycles:  428148513 heartbeat IPC: 0.15318 cumulative IPC: 0.15271 (Simulation time: 0 hr 15 min 33 sec) 
Heartbeat CPU  2 instructions:  103000003 cycles:  432355375 heartbeat IPC: 0.12092 cumulative IPC: 0.12706 (Simulation time: 0 hr 15 min 39 sec) 
Heartbeat CPU  1 instructions:  121000000 cycles:  433061291 heartbeat IPC: 0.14199 cumulative IPC: 0.15649 (Simulation time: 0 hr 15 min 39 sec) 
Heartbeat CPU  0 instructions:  101000003 cycles:  434101082 heartbeat IPC: 0.11920 cumulative IPC: 0.12401 (Simulation time: 0 hr 15 min 41 sec) 
Heartbeat CPU  3 instructions:  121000003 cycles:  434670188 heartbeat IPC: 0.15334 cumulative IPC: 0.15272 (Simulation time: 0 hr 15 min 42 sec) 
Heartbeat CPU  1 instructions:  122000003 cycles:  440120852 heartbeat IPC: 0.14165 cumulative IPC: 0.15624 (Simulation time: 0 hr 15 min 49 sec) 
Heartbeat CPU  2 instructions:  104000000 cycles:  440613742 heartbeat IPC: 0.12109 cumulative IPC: 0.12694 (Simulation time: 0 hr 15 min 50 sec) 
Heartbeat CPU  3 instructions:  122000002 cycles:  441198437 heartbeat IPC: 0.15318 cumulative IPC: 0.15273 (Simulation time: 0 hr 15 min 51 sec) 
Heartbeat CPU  0 instructions:  102000000 cycles:  442495824 heartbeat IPC: 0.11912 cumulative IPC: 0.12392 (Simulation time: 0 hr 15 min 53 sec) 
Heartbeat CPU  1 instructions:  123000001 cycles:  447253050 heartbeat IPC: 0.14021 cumulative IPC: 0.15597 (Simulation time: 0 hr 15 min 59 sec) 
Heartbeat CPU  3 instructions:  123000001 cycles:  447740206 heartbeat IPC: 0.15286 cumulative IPC: 0.15273 (Simulation time: 0 hr 16 min 0 sec) 
Heartbeat CPU  2 instructions:  105000002 cycles:  448978377 heartbeat IPC: 0.11955 cumulative IPC: 0.12680 (Simulation time: 0 hr 16 min 1 sec) 
Heartbeat CPU  0 instructions:  103000003 cycles:  450981872 heartbeat IPC: 0.11784 cumulative IPC: 0.12380 (Simulation time: 0 hr 16 min 4 sec) 
Heartbeat CPU  3 instructions:  124000000 cycles:  454292054 heartbeat IPC: 0.15263 cumulative IPC: 0.15273 (Simulation time: 0 hr 16 min 9 sec) 
Heartbeat CPU  1 instructions:  124000000 cycles:  454365306 heartbeat IPC: 0.14060 cumulative IPC: 0.15571 (Simulation time: 0 hr 16 min 9 sec) 
Heartbeat CPU  2 instructions:  106000000 cycles:  457199932 heartbeat IPC: 0.12163 cumulative IPC: 0.12670 (Simulation time: 0 hr 16 min 13 sec) 
Heartbeat CPU  0 instructions:  104000000 cycles:  459439957 heartbeat IPC: 0.11823 cumulative IPC: 0.12369 (Simulation time: 0 hr 16 min 16 sec) 
Heartbeat CPU  3 instructions:  125000000 cycles:  460807283 heartbeat IPC: 0.15349 cumulative IPC: 0.15274 (Simulation time: 0 hr 16 min 18 sec) 
Heartbeat CPU  1 instructions:  125000002 cycles:  461489752 heartbeat IPC: 0.14036 cumulative IPC: 0.15546 (Simulation time: 0 hr 16 min 19 sec) 
Heartbeat CPU  2 instructions:  107000001 cycles:  465501535 heartbeat IPC: 0.12046 cumulative IPC: 0.12658 (Simulation time: 0 hr 16 min 24 sec) 
Heartbeat CPU  3 instructions:  126000003 cycles:  467318213 heartbeat IPC: 0.15359 cumulative IPC: 0.15275 (Simulation time: 0 hr 16 min 27 sec) 
Heartbeat CPU  0 instructions:  105000002 cycles:  467849337 heartbeat IPC: 0.11892 cumulative IPC: 0.12360 (Simulation time: 0 hr 16 min 27 sec) 
Heartbeat CPU  1 instructions:  126000003 cycles:  469926432 heartbeat IPC: 0.11853 cumulative IPC: 0.15477 (Simulation time: 0 hr 16 min 30 sec) 
Heartbeat CPU  2 instructions:  108000000 cycles:  473799560 heartbeat IPC: 0.12051 cumulative IPC: 0.12647 (Simulation time: 0 hr 16 min 35 sec) 
Heartbeat CPU  3 instructions:  127000001 cycles:  473818435 heartbeat IPC: 0.15384 cumulative IPC: 0.15277 (Simulation time: 0 hr 16 min 35 sec) 
Heartbeat CPU  0 instructions:  106000003 cycles:  476319414 heartbeat IPC: 0.11806 cumulative IPC: 0.12349 (Simulation time: 0 hr 16 min 39 sec) 
Heartbeat CPU  1 instructions:  127000003 cycles:  477030403 heartbeat IPC: 0.14077 cumulative IPC: 0.15455 (Simulation time: 0 hr 16 min 40 sec) 
Heartbeat CPU  3 instructions:  128000000 cycles:  480186832 heartbeat IPC: 0.15703 cumulative IPC: 0.15282 (Simulation time: 0 hr 16 min 44 sec) 
Heartbeat CPU  2 instructions:  109000001 cycles:  482318844 heartbeat IPC: 0.11738 cumulative IPC: 0.12630 (Simulation time: 0 hr 16 min 47 sec) 
Heartbeat CPU  1 instructions:  128000000 cycles:  484129508 heartbeat IPC: 0.14086 cumulative IPC: 0.15434 (Simulation time: 0 hr 16 min 49 sec) 
Heartbeat CPU  0 instructions:  107000001 cycles:  484842749 heartbeat IPC: 0.11732 cumulative IPC: 0.12338 (Simulation time: 0 hr 16 min 50 sec) 
Heartbeat CPU  3 instructions:  129000000 cycles:  486677367 heartbeat IPC: 0.15407 cumulative IPC: 0.15284 (Simulation time: 0 hr 16 min 53 sec) 
Heartbeat CPU  2 instructions:  110000002 cycles:  490636302 heartbeat IPC: 0.12023 cumulative IPC: 0.12619 (Simulation time: 0 hr 16 min 58 sec) 
Heartbeat CPU  1 instructions:  129000002 cycles:  491197581 heartbeat IPC: 0.14148 cumulative IPC: 0.15414 (Simulation time: 0 hr 16 min 59 sec) 
Heartbeat CPU  3 instructions:  130000000 cycles:  493160586 heartbeat IPC: 0.15424 cumulative IPC: 0.15286 (Simulation time: 0 hr 17 min 2 sec) 
Heartbeat CPU  0 instructions:  108000000 cycles:  493330768 heartbeat IPC: 0.11781 cumulative IPC: 0.12328 (Simulation time: 0 hr 17 min 2 sec) 
Heartbeat CPU  1 instructions:  130000003 cycles:  498308190 heartbeat IPC: 0.14064 cumulative IPC: 0.15394 (Simulation time: 0 hr 17 min 9 sec) 
Heartbeat CPU  2 instructions:  111000001 cycles:  498998047 heartbeat IPC: 0.11959 cumulative IPC: 0.12608 (Simulation time: 0 hr 17 min 10 sec) 
Heartbeat CPU  3 instructions:  131000000 cycles:  499635718 heartbeat IPC: 0.15444 cumulative IPC: 0.15288 (Simulation time: 0 hr 17 min 11 sec) 
Heartbeat CPU  0 instructions:  109000000 cycles:  502075942 heartbeat IPC: 0.11435 cumulative IPC: 0.12312 (Simulation time: 0 hr 17 min 14 sec) 
Heartbeat CPU  1 instructions:  131000002 cycles:  505388313 heartbeat IPC: 0.14124 cumulative IPC: 0.15376 (Simulation time: 0 hr 17 min 19 sec) 
Heartbeat CPU  3 instructions:  132000000 cycles:  506136577 heartbeat IPC: 0.15383 cumulative IPC: 0.15290 (Simulation time: 0 hr 17 min 20 sec) 
Heartbeat CPU  2 instructions:  112000000 cycles:  506894928 heartbeat IPC: 0.12663 cumulative IPC: 0.12609 (Simulation time: 0 hr 17 min 21 sec) 
Heartbeat CPU  0 instructions:  110000000 cycles:  510589071 heartbeat IPC: 0.11747 cumulative IPC: 0.12302 (Simulation time: 0 hr 17 min 27 sec) 
Heartbeat CPU  2 instructions:  113000001 cycles:  511338018 heartbeat IPC: 0.22507 cumulative IPC: 0.12699 (Simulation time: 0 hr 17 min 28 sec) 
Heartbeat CPU  1 instructions:  132000000 cycles:  512424242 heartbeat IPC: 0.14213 cumulative IPC: 0.15359 (Simulation time: 0 hr 17 min 29 sec) 
Heartbeat CPU  3 instructions:  133000000 cycles:  512619609 heartbeat IPC: 0.15425 cumulative IPC: 0.15291 (Simulation time: 0 hr 17 min 30 sec) 
Heartbeat CPU  2 instructions:  114000003 cycles:  516684408 heartbeat IPC: 0.18704 cumulative IPC: 0.12764 (Simulation time: 0 hr 17 min 36 sec) 
Heartbeat CPU  3 instructions:  134000000 cycles:  519122992 heartbeat IPC: 0.15377 cumulative IPC: 0.15292 (Simulation time: 0 hr 17 min 39 sec) 
Heartbeat CPU  0 instructions:  111000000 cycles:  519129543 heartbeat IPC: 0.11709 cumulative IPC: 0.12292 (Simulation time: 0 hr 17 min 39 sec) 
Heartbeat CPU  1 instructions:  133000002 cycles:  519534816 heartbeat IPC: 0.14064 cumulative IPC: 0.15340 (Simulation time: 0 hr 17 min 39 sec) 
Heartbeat CPU  2 instructions:  115000003 cycles:  524934668 heartbeat IPC: 0.12121 cumulative IPC: 0.12753 (Simulation time: 0 hr 17 min 47 sec) 
Heartbeat CPU  3 instructions:  135000003 cycles:  525632502 heartbeat IPC: 0.15362 cumulative IPC: 0.15293 (Simulation time: 0 hr 17 min 48 sec) 
Heartbeat CPU  0 instructions:  112000000 cycles:  526354960 heartbeat IPC: 0.13840 cumulative IPC: 0.12314 (Simulation time: 0 hr 17 min 49 sec) 
Heartbeat CPU  1 instructions:  134000002 cycles:  526667532 heartbeat IPC: 0.14020 cumulative IPC: 0.15322 (Simulation time: 0 hr 17 min 50 sec) 
Heartbeat CPU  0 instructions:  113000003 cycles:  531037533 heartbeat IPC: 0.21356 cumulative IPC: 0.12397 (Simulation time: 0 hr 17 min 56 sec) 
Heartbeat CPU  3 instructions:  136000000 cycles:  532162742 heartbeat IPC: 0.15313 cumulative IPC: 0.15294 (Simulation time: 0 hr 17 min 58 sec) 
Heartbeat CPU  2 instructions:  116000000 cycles:  533118896 heartbeat IPC: 0.12219 cumulative IPC: 0.12745 (Simulation time: 0 hr 17 min 59 sec) 
Heartbeat CPU  1 instructions:  135000000 cycles:  533801480 heartbeat IPC: 0.14017 cumulative IPC: 0.15303 (Simulation time: 0 hr 18 min 0 sec) 
Heartbeat CPU  0 instructions:  114000002 cycles:  537432884 heartbeat IPC: 0.15636 cumulative IPC: 0.12437 (Simulation time: 0 hr 18 min 5 sec) 
Heartbeat CPU  3 instructions:  137000003 cycles:  538683911 heartbeat IPC: 0.15335 cumulative IPC: 0.15294 (Simulation time: 0 hr 18 min 7 sec) 
Heartbeat CPU  1 instructions:  136000000 cycles:  540986079 heartbeat IPC: 0.13919 cumulative IPC: 0.15284 (Simulation time: 0 hr 18 min 10 sec) 
Heartbeat CPU  2 instructions:  117000001 cycles:  541347641 heartbeat IPC: 0.12153 cumulative IPC: 0.12735 (Simulation time: 0 hr 18 min 11 sec) 
Heartbeat CPU  3 instructions:  138000003 cycles:  545217979 heartbeat IPC: 0.15304 cumulative IPC: 0.15294 (Simulation time: 0 hr 18 min 16 sec) 
Heartbeat CPU  0 instructions:  115000000 cycles:  545732922 heartbeat IPC: 0.12048 cumulative IPC: 0.12431 (Simulation time: 0 hr 18 min 17 sec) 
Heartbeat CPU  1 instructions:  137000000 cycles:  546933344 heartbeat IPC: 0.16814 cumulative IPC: 0.15302 (Simulation time: 0 hr 18 min 19 sec) 
Heartbeat CPU  2 instructions:  118000001 cycles:  549626773 heartbeat IPC: 0.12079 cumulative IPC: 0.12725 (Simulation time: 0 hr 18 min 23 sec) 
Heartbeat CPU  3 instructions:  139000001 cycles:  551746499 heartbeat IPC: 0.15317 cumulative IPC: 0.15295 (Simulation time: 0 hr 18 min 26 sec) 
Heartbeat CPU  1 instructions:  138000001 cycles:  552963827 heartbeat IPC: 0.16582 cumulative IPC: 0.15316 (Simulation time: 0 hr 18 min 28 sec) 
Heartbeat CPU  0 instructions:  116000000 cycles:  554120679 heartbeat IPC: 0.11922 cumulative IPC: 0.12423 (Simulation time: 0 hr 18 min 29 sec) 
Heartbeat CPU  2 instructions:  119000001 cycles:  557975381 heartbeat IPC: 0.11978 cumulative IPC: 0.12713 (Simulation time: 0 hr 18 min 35 sec) 
Heartbeat CPU  3 instructions:  140000000 cycles:  558412409 heartbeat IPC: 0.15002 cumulative IPC: 0.15291 (Simulation time: 0 hr 18 min 36 sec) 
Heartbeat CPU  1 instructions:  139000002 cycles:  559617461 heartbeat IPC: 0.15029 cumulative IPC: 0.15313 (Simulation time: 0 hr 18 min 37 sec) 
Heartbeat CPU  0 instructions:  117000002 cycles:  562452036 heartbeat IPC: 0.12003 cumulative IPC: 0.12417 (Simulation time: 0 hr 18 min 41 sec) 
Heartbeat CPU  3 instructions:  141000000 cycles:  565052638 heartbeat IPC: 0.15060 cumulative IPC: 0.15288 (Simulation time: 0 hr 18 min 45 sec) 
Heartbeat CPU  2 instructions:  120000000 cycles:  566232334 heartbeat IPC: 0.12111 cumulative IPC: 0.12704 (Simulation time: 0 hr 18 min 47 sec) 
Heartbeat CPU  1 instructions:  140000000 cycles:  566538597 heartbeat IPC: 0.14448 cumulative IPC: 0.15302 (Simulation time: 0 hr 18 min 47 sec) 
Heartbeat CPU  0 instructions:  118000000 cycles:  570864823 heartbeat IPC: 0.11887 cumulative IPC: 0.12409 (Simulation time: 0 hr 18 min 54 sec) 
Heartbeat CPU  3 instructions:  142000000 cycles:  571675179 heartbeat IPC: 0.15100 cumulative IPC: 0.15286 (Simulation time: 0 hr 18 min 55 sec) 
Heartbeat CPU  1 instructions:  141000003 cycles:  573709001 heartbeat IPC: 0.13946 cumulative IPC: 0.15284 (Simulation time: 0 hr 18 min 57 sec) 
Heartbeat CPU  2 instructions:  121000000 cycles:  574449254 heartbeat IPC: 0.12170 cumulative IPC: 0.12696 (Simulation time: 0 hr 18 min 58 sec) 
Heartbeat CPU  3 instructions:  143000002 cycles:  578327933 heartbeat IPC: 0.15031 cumulative IPC: 0.15283 (Simulation time: 0 hr 19 min 4 sec) 
Heartbeat CPU  0 instructions:  119000003 cycles:  579206259 heartbeat IPC: 0.11988 cumulative IPC: 0.12402 (Simulation time: 0 hr 19 min 5 sec) 
[...]
Core_0_L1I_acc_level_2 0
Core_0_L1I_acc_level_3 0
Core_0_L1I_acc_level_4 0
Core_0_L1I_acc_level_5 0
Core_0_L1I_acc_level_6 0
Core_0_L1I_acc_level_7 0
Core_0_L1I_acc_level_8 0
Core_0_L1I_acc_level_9 0

Core_0_L2C_total_access 1929582
Core_0_L2C_total_hit 1007211
Core_0_L2C_total_miss 922371
Core_0_L2C_loads 1156048
Core_0_L2C_load_hit 278094
Core_0_L2C_load_miss 877954
Core_0_L2C_RFOs 53433
Core_0_L2C_RFO_hit 10430
Core_0_L2C_RFO_miss 43003
Core_0_L2C_prefetches 0
Core_0_L2C_prefetch_hit 0
Core_0_L2C_prefetch_miss 0
Core_0_L2C_writebacks 720101
Core_0_L2C_writeback_hit 718687
Core_0_L2C_writeback_miss 1414
Core_0_L2C_prefetch_requested 0
Core_0_L2C_prefetch_dropped 0
Core_0_L2C_prefetch_issued 0
Core_0_L2C_prefetch_filled 0
Core_0_L2C_prefetch_useful 0
Core_0_L2C_prefetch_useless 0
Core_0_L2C_prefetch_late 0
Core_0_L2C_average_miss_latency 120.46675

Core_0_L2C_rq_access 1209494
Core_0_L2C_rq_forward 0
Core_0_L2C_rq_merged 0
Core_0_L2C_rq_to_cache 1209482
Core_0_L2C_rq_full 0

Core_0_L2C_wq_access 720101
Core_0_L2C_wq_forward 12
Core_0_L2C_wq_merged 0
Core_0_L2C_wq_to_cache 720101
Core_0_L2C_wq_full 0

Core_0_L2C_pq_access 0
Core_0_L2C_pq_forward 0
Core_0_L2C_pq_merged 0
Core_0_L2C_pq_to_cache 0
Core_0_L2C_pq_full 0

Core_0_L2C_acc_epochs 161877
Core_0_L2C_acc_level_0 161877
Core_0_L2C_acc_level_1 0
Core_0_L2C_acc_level_2 0
Core_0_L2C_acc_level_3 0
Core_0_L2C_acc_level_4 0
Core_0_L2C_acc_level_5 0
Core_0_L2C_acc_level_6 0
Core_0_L2C_acc_level_7 0
Core_0_L2C_acc_level_8 0
Core_0_L2C_acc_level_9 0

Core_0_LLC_total_access 1456218
Core_0_LLC_total_hit 1192565
Core_0_LLC_total_miss 263653
Core_0_LLC_loads 877950
Core_0_LLC_load_hit 647598
Core_0_LLC_load_miss 230352
Core_0_LLC_RFOs 43004
Core_0_LLC_RFO_hit 36305
Core_0_LLC_RFO_miss 6699
Core_0_LLC_prefetches 0
Core_0_LLC_prefetch_hit 0
Core_0_LLC_prefetch_miss 0
Core_0_LLC_writebacks 535264
Core_0_LLC_writeback_hit 508662
Core_0_LLC_writeback_miss 26602
Core_0_LLC_prefetch_requested 0
Core_0_LLC_prefetch_dropped 0
Core_0_LLC_prefetch_issued 0
Core_0_LLC_prefetch_filled 0
Core_0_LLC_prefetch_useful 0
Core_0_LLC_prefetch_useless 0
Core_0_LLC_prefetch_late 0
Core_0_LLC_average_miss_latency 939.05342

Core_0_LLC_rq_access 3157878
Core_0_LLC_rq_forward 0
Core_0_LLC_rq_merged 0
Core_0_LLC_rq_to_cache 3157872
Core_0_LLC_rq_full 0

Core_0_LLC_wq_access 1890731
Core_0_LLC_wq_forward 6
Core_0_LLC_wq_merged 0
Core_0_LLC_wq_to_cache 1890731
Core_0_LLC_wq_full 0

Core_0_LLC_pq_access 0
Core_0_LLC_pq_forward 0
Core_0_LLC_pq_merged 0
Core_0_LLC_pq_to_cache 0
Core_0_LLC_pq_full 0

Core_0_LLC_acc_epochs 1201468
Core_0_LLC_acc_level_0 1201468
Core_0_LLC_acc_level_1 0
Core_0_LLC_acc_level_2 0
Core_0_LLC_acc_level_3 0
Core_0_LLC_acc_level_4 0
Core_0_LLC_acc_level_5 0
Core_0_LLC_acc_level_6 0
Core_0_LLC_acc_level_7 0
Core_0_LLC_acc_level_8 0
Core_0_LLC_acc_level_9 0

Core_0_major_page_fault 0
Core_0_minor_page_fault 1890

Core_1_instructions 150000002
Core_1_cycles 966849922
Core_1_IPC 0.15514

Core_1_branch_prediction_accuracy 98.93061
Core_1_branch_MPKI 2.15826
Core_1_average_ROB_occupancy_at_mispredict 174.56919

Core_1_L1D_total_access 24340433
Core_1_L1D_total_hit 23309628
Core_1_L1D_total_miss 1030805
Core_1_L1D_loads 14493002
Core_1_L1D_load_hit 13637837
Core_1_L1D_load_miss 855165
Core_1_L1D_RFOs 9847431
Core_1_L1D_RFO_hit 9671791
Core_1_L1D_RFO_miss 175640
Core_1_L1D_prefetches 0
Core_1_L1D_prefetch_hit 0
Core_1_L1D_prefetch_miss 0
Core_1_L1D_writebacks 0
Core_1_L1D_writeback_hit 0
Core_1_L1D_writeback_miss 0
Core_1_L1D_prefetch_requested 0
Core_1_L1D_prefetch_dropped 0
Core_1_L1D_prefetch_issued 0
Core_1_L1D_prefetch_filled 0
Core_1_L1D_prefetch_useful 0
Core_1_L1D_prefetch_useless 0
Core_1_L1D_prefetch_late 0
Core_1_L1D_average_miss_latency 219.76151

Core_1_L1D_rq_access 26203207
Core_1_L1D_rq_forward 0
Core_1_L1D_rq_merged 8256852
Core_1_L1D_rq_to_cache 17945690
Core_1_L1D_rq_full 0

Core_1_L1D_wq_access 12895931
Core_1_L1D_wq_forward 665
Core_1_L1D_wq_merged 189039
Core_1_L1D_wq_to_cache 12706892
Core_1_L1D_wq_full 24413

Core_1_L1D_pq_access 0
Core_1_L1D_pq_forward 0
Core_1_L1D_pq_merged 0
Core_1_L1D_pq_to_cache 0
Core_1_L1D_pq_full 0

Core_1_L1D_acc_epochs 236379
Core_1_L1D_acc_level_0 236379
Core_1_L1D_acc_level_1 0
Core_1_L1D_acc_level_2 0
Core_1_L1D_acc_level_3 0
Core_1_L1D_acc_level_4 0
Core_1_L1D_acc_level_5 0
Core_1_L1D_acc_level_6 0
Core_1_L1D_acc_level_7 0
Core_1_L1D_acc_level_8 0
Core_1_L1D_acc_level_9 0

Core_1_L1I_total_access 38334263
Core_1_L1I_total_hit 38212757
Core_1_L1I_total_miss 121506
Core_1_L1I_loads 38334263
Core_1_L1I_load_hit 38212757
Core_1_L1I_load_miss 121506
Core_1_L1I_RFOs 0
Core_1_L1I_RFO_hit 0
Core_1_L1I_RFO_miss 0
Core_1_L1I_prefetches 0
Core_1_L1I_prefetch_hit 0
Core_1_L1I_prefetch_miss 0
Core_1_L1I_writebacks 0
Core_1_L1I_writeback_hit 0
Core_1_L1I_writeback_miss 0
Core_1_L1I_prefetch_requested 0
Core_1_L1I_prefetch_dropped 0
Core_1_L1I_prefetch_issued 0
Core_1_L1I_prefetch_filled 0
Core_1_L1I_prefetch_useful 0
Core_1_L1I_prefetch_useless 0
Core_1_L1I_prefetch_late 0
Core_1_L1I_average_miss_latency 170.68209

Core_1_L1I_rq_access 184125349
Core_1_L1I_rq_forward 0
Core_1_L1I_rq_merged 137304156
Core_1_L1I_rq_to_cache 46821193
Core_1_L1I_rq_full 0

Core_1_L1I_wq_access 0
Core_1_L1I_wq_forward 0
Core_1_L1I_wq_merged 0
Core_1_L1I_wq_to_cache 0
Core_1_L1I_wq_full 0

Core_1_L1I_pq_access 0
Core_1_L1I_pq_forward 0
Core_1_L1I_pq_merged 0
Core_1_L1I_pq_to_cache 0
Core_1_L1I_pq_full 0

Core_1_L1I_acc_epochs 236379
Core_1_L1I_acc_level_0 236379
Core_1_L1I_acc_level_1 0
Core_1_L1I_acc_level_2 0
Core_1_L1I_acc_level_3 0
Core_1_L1I_acc_level_4 0
Core_1_L1I_acc_level_5 0
Core_1_L1I_acc_level_6 0
Core_1_L1I_acc_level_7 0
Core_1_L1I_acc_level_8 0
Core_1_L1I_acc_level_9 0

Core_1_L2C_total_access 1758630
Core_1_L2C_total_hit 1010278
Core_1_L2C_total_miss 748352
Core_1_L2C_loads 976659
Core_1_L2C_load_hit 356166
Core_1_L2C_load_miss 620493
Core_1_L2C_RFOs 175632
Core_1_L2C_RFO_hit 49232
Core_1_L2C_RFO_miss 126400
Core_1_L2C_prefetches 0
Core_1_L2C_prefetch_hit 0
Core_1_L2C_prefetch_miss 0
Core_1_L2C_writebacks 606339
Core_1_L2C_writeback_hit 604880
Core_1_L2C_writeback_miss 1459
Core_1_L2C_prefetch_requested 0
Core_1_L2C_prefetch_dropped 0
Core_1_L2C_prefetch_issued 0
Core_1_L2C_prefetch_filled 0
Core_1_L2C_prefetch_useful 0
Core_1_L2C_prefetch_useless 0
Core_1_L2C_prefetch_late 0
Core_1_L2C_average_miss_latency 218.41337

Core_1_L2C_rq_access 1440742
Core_1_L2C_rq_forward 0
Core_1_L2C_rq_merged 0
Core_1_L2C_rq_to_cache 1440713
Core_1_L2C_rq_full 0

Core_1_L2C_wq_access 748300
Core_1_L2C_wq_forward 29
Core_1_L2C_wq_merged 0
Core_1_L2C_wq_to_cache 748300
Core_1_L2C_wq_full 0

Core_1_L2C_pq_access 0
Core_1_L2C_pq_forward 0
Core_1_L2C_pq_merged 0
Core_1_L2C_pq_to_cache 0
Core_1_L2C_pq_full 0

Core_1_L2C_acc_epochs 236379
Core_1_L2C_acc_level_0 236379
Core_1_L2C_acc_level_1 0
Core_1_L2C_acc_level_2 0
Core_1_L2C_acc_level_3 0
Core_1_L2C_acc_level_4 0
Core_1_L2C_acc_level_5 0
Core_1_L2C_acc_level_6 0
Core_1_L2C_acc_level_7 0
Core_1_L2C_acc_level_8 0
Core_1_L2C_acc_level_9 0

Core_1_LLC_total_access 1220684
Core_1_LLC_total_hit 597400
Core_1_LLC_total_miss 623284
Core_1_LLC_loads 620493
Core_1_LLC_load_hit 207046
Core_1_LLC_load_miss 413447
Core_1_LLC_RFOs 126400
Core_1_LLC_RFO_hit 15253
Core_1_LLC_RFO_miss 111147
Core_1_LLC_prefetches 0
Core_1_LLC_prefetch_hit 0
Core_1_LLC_prefetch_miss 0
Core_1_LLC_writebacks 473791
Core_1_LLC_writeback_hit 375101
Core_1_LLC_writeback_miss 98690
Core_1_LLC_prefetch_requested 0
Core_1_LLC_prefetch_dropped 0
Core_1_LLC_prefetch_issued 0
Core_1_LLC_prefetch_filled 0
Core_1_LLC_prefetch_useful 0
Core_1_LLC_prefetch_useless 0
Core_1_LLC_prefetch_late 0
Core_1_LLC_average_miss_latency 397.22543

Core_1_LLC_rq_access 3157878
Core_1_LLC_rq_forward 0
Core_1_LLC_rq_merged 0
Core_1_LLC_rq_to_cache 3157872
Core_1_LLC_rq_full 0

Core_1_LLC_wq_access 1890731
Core_1_LLC_wq_forward 6
Core_1_LLC_wq_merged 0
Core_1_LLC_wq_to_cache 1890731
Core_1_LLC_wq_full 0

Core_1_LLC_pq_access 0
Core_1_LLC_pq_forward 0
Core_1_LLC_pq_merged 0
Core_1_LLC_pq_to_cache 0
Core_1_LLC_pq_full 0

Core_1_LLC_acc_epochs 1201468
Core_1_LLC_acc_level_0 1201468
Core_1_LLC_acc_level_1 0
Core_1_LLC_acc_level_2 0
Core_1_LLC_acc_level_3 0
Core_1_LLC_acc_level_4 0
Core_1_LLC_acc_level_5 0
Core_1_LLC_acc_level_6 0
Core_1_LLC_acc_level_7 0
Core_1_LLC_acc_level_8 0
Core_1_LLC_acc_level_9 0

Core_1_major_page_fault 0
Core_1_minor_page_fault 10522

Core_2_instructions 150000001
Core_2_cycles 1178076892
Core_2_IPC 0.12733

Core_2_branch_prediction_accuracy 99.42893
Core_2_branch_MPKI 1.30209
Core_2_average_ROB_occupancy_at_mispredict 134.40749

Core_2_L1D_total_access 24715511
Core_2_L1D_total_hit 23485679
Core_2_L1D_total_miss 1229832
Core_2_L1D_loads 14459080
Core_2_L1D_load_hit 13286231
Core_2_L1D_load_miss 1172849
Core_2_L1D_RFOs 10256431
Core_2_L1D_RFO_hit 10199448
Core_2_L1D_RFO_miss 56983
Core_2_L1D_prefetches 0
Core_2_L1D_prefetch_hit 0
Core_2_L1D_prefetch_miss 0
Core_2_L1D_writebacks 0
Core_2_L1D_writeback_hit 0
Core_2_L1D_writeback_miss 0
Core_2_L1D_prefetch_requested 0
Core_2_L1D_prefetch_dropped 0
Core_2_L1D_prefetch_issued 0
Core_2_L1D_prefetch_filled 0
Core_2_L1D_prefetch_useful 0
Core_2_L1D_prefetch_useless 0
Core_2_L1D_prefetch_late 0
Core_2_L1D_average_miss_latency 159.11294

Core_2_L1D_rq_access 21954900
Core_2_L1D_rq_forward 0
Core_2_L1D_rq_merged 7086999
Core_2_L1D_rq_to_cache 14867893
Core_2_L1D_rq_full 0

Core_2_L1D_wq_access 11590838
Core_2_L1D_wq_forward 8
Core_2_L1D_wq_merged 833919
Core_2_L1D_wq_to_cache 10756919
Core_2_L1D_wq_full 5285

Core_2_L1D_pq_access 0
Core_2_L1D_pq_forward 0
Core_2_L1D_pq_merged 0
Core_2_L1D_pq_to_cache 0
Core_2_L1D_pq_full 0

Core_2_L1D_acc_epochs 167716
Core_2_L1D_acc_level_0 167716
Core_2_L1D_acc_level_1 0
Core_2_L1D_acc_level_2 0
Core_2_L1D_acc_level_3 0
Core_2_L1D_acc_level_4 0
Core_2_L1D_acc_level_5 0
Core_2_L1D_acc_level_6 0
Core_2_L1D_acc_level_7 0
Core_2_L1D_acc_level_8 0
Core_2_L1D_acc_level_9 0

Core_2_L1I_total_access 41294485
Core_2_L1I_total_hit 41282087
Core_2_L1I_total_miss 12398
Core_2_L1I_loads 41294485
Core_2_L1I_load_hit 41282087
Core_2_L1I_load_miss 12398
Core_2_L1I_RFOs 0
Core_2_L1I_RFO_hit 0
Core_2_L1I_RFO_miss 0
Core_2_L1I_prefetches 0
Core_2_L1I_prefetch_hit 0
Core_2_L1I_prefetch_miss 0
Core_2_L1I_writebacks 0
Core_2_L1I_writeback_hit 0
Core_2_L1I_writeback_miss 0
Core_2_L1I_prefetch_requested 0
Core_2_L1I_prefetch_dropped 0
Core_2_L1I_prefetch_issued 0
Core_2_L1I_prefetch_filled 0
Core_2_L1I_prefetch_useful 0
Core_2_L1I_prefetch_useless 0
Core_2_L1I_prefetch_late 0
Core_2_L1I_average_miss_latency 179.47169

Core_2_L1I_rq_access 153546415
Core_2_L1I_rq_forward 0
Core_2_L1I_rq_merged 111240568
Core_2_L1I_rq_to_cache 42305847
Core_2_L1I_rq_full 0

Core_2_L1I_wq_access 0
Core_2_L1I_wq_forward 0
Core_2_L1I_wq_merged 0
Core_2_L1I_wq_to_cache 0
Core_2_L1I_wq_full 0

Core_2_L1I_pq_access 0
Core_2_L1I_pq_forward 0
Core_2_L1I_pq_merged 0
Core_2_L1I_pq_to_cache 0
Core_2_L1I_pq_full 0

Core_2_L1I_acc_epochs 167716
Core_2_L1I_acc_level_0 167716
Core_2_L1I_acc_level_1 0
Core_2_L1I_acc_level_2 0
Core_2_L1I_acc_level_3 0
Core_2_L1I_acc_level_4 0
Core_2_L1I_acc_level_5 0
Core_2_L1I_acc_level_6 0
Core_2_L1I_acc_level_7 0
Core_2_L1I_acc_level_8 0
Core_2_L1I_acc_level_9 0

Core_2_L2C_total_access 1971611
Core_2_L2C_total_hit 1057696
Core_2_L2C_total_miss 913915
Core_2_L2C_loads 1185246
Core_2_L2C_load_hit 319778
Core_2_L2C_load_miss 865468
Core_2_L2C_RFOs 56976
Core_2_L2C_RFO_hit 10056
Core_2_L2C_RFO_miss 46920
Core_2_L2C_prefetches 0
Core_2_L2C_prefetch_hit 0
Core_2_L2C_prefetch_miss 0
Core_2_L2C_writebacks 729389
Core_2_L2C_writeback_hit 727862
Core_2_L2C_writeback_miss 1527
Core_2_L2C_prefetch_requested 0
Core_2_L2C_prefetch_dropped 0
Core_2_L2C_prefetch_issued 0
Core_2_L2C_prefetch_filled 0
Core_2_L2C_prefetch_useful 0
Core_2_L2C_prefetch_useless 0
Core_2_L2C_prefetch_late 0
Core_2_L2C_average_miss_latency 115.94197

Core_2_L2C_rq_access 1271239
Core_2_L2C_rq_forward 0
Core_2_L2C_rq_merged 0
Core_2_L2C_rq_to_cache 1271231
Core_2_L2C_rq_full 0

Core_2_L2C_wq_access 745742
Core_2_L2C_wq_forward 8
Core_2_L2C_wq_merged 0
Core_2_L2C_wq_to_cache 745742
Core_2_L2C_wq_full 0

Core_2_L2C_pq_access 0
Core_2_L2C_pq_forward 0
Core_2_L2C_pq_merged 0
Core_2_L2C_pq_to_cache 0
Core_2_L2C_pq_full 0

Core_2_L2C_acc_epochs 167716
Core_2_L2C_acc_level_0 167716
Core_2_L2C_acc_level_1 0
Core_2_L2C_acc_level_2 0
Core_2_L2C_acc_level_3 0
Core_2_L2C_acc_level_4 0
Core_2_L2C_acc_level_5 0
Core_2_L2C_acc_level_6 0
Core_2_L2C_acc_level_7 0
Core_2_L2C_acc_level_8 0
Core_2_L2C_acc_level_9 0

Core_2_LLC_total_access 1459290
Core_2_LLC_total_hit 1221676
Core_2_LLC_total_miss 237614
Core_2_LLC_loads 865466
Core_2_LLC_load_hit 657027
Core_2_LLC_load_miss 208439
Core_2_LLC_RFOs 46920
Core_2_LLC_RFO_hit 40329
Core_2_LLC_RFO_miss 6591
Core_2_LLC_prefetches 0
Core_2_LLC_prefetch_hit 0
Core_2_LLC_prefetch_miss 0
Core_2_LLC_writebacks 546904
Core_2_LLC_writeback_hit 524320
Core_2_LLC_writeback_miss 22584
Core_2_LLC_prefetch_requested 0
Core_2_LLC_prefetch_dropped 0
Core_2_LLC_prefetch_issued 0
Core_2_LLC_prefetch_filled 0
Core_2_LLC_prefetch_useful 0
Core_2_LLC_prefetch_useless 0
Core_2_LLC_prefetch_late 0
Core_2_LLC_average_miss_latency 1041.95987

Core_2_LLC_rq_access 3157878
Core_2_LLC_rq_forward 0
Core_2_LLC_rq_merged 0
Core_2_LLC_rq_to_cache 3157872
Core_2_LLC_rq_full 0

Core_2_LLC_wq_access 1890731
Core_2_LLC_wq_forward 6
Core_2_LLC_wq_merged 0
Core_2_LLC_wq_to_cache 1890731
Core_2_LLC_wq_full 0

Core_2_LLC_pq_access 0
Core_2_LLC_pq_forward 0
Core_2_LLC_pq_merged 0
Core_2_LLC_pq_to_cache 0
Core_2_LLC_pq_full 0

Core_2_LLC_acc_epochs 1201468
Core_2_LLC_acc_level_0 1201468
Core_2_LLC_acc_level_1 0
Core_2_LLC_acc_level_2 0
Core_2_LLC_acc_level_3 0
Core_2_LLC_acc_level_4 0
Core_2_LLC_acc_level_5 0
Core_2_LLC_acc_level_6 0
Core_2_LLC_acc_level_7 0
Core_2_LLC_acc_level_8 0
Core_2_LLC_acc_level_9 0

Core_2_major_page_fault 0
Core_2_minor_page_fault 1756

Core_3_instructions 150000001
Core_3_cycles 984668547
Core_3_IPC 0.15234

Core_3_branch_prediction_accuracy 99.56434
Core_3_branch_MPKI 0.90254
Core_3_average_ROB_occupancy_at_mispredict 219.80189

Core_3_L1D_total_access 23353583
Core_3_L1D_total_hit 22975333
Core_3_L1D_total_miss 378250
Core_3_L1D_loads 13921809
Core_3_L1D_load_hit 13548650
Core_3_L1D_load_miss 373159
Core_3_L1D_RFOs 9431774
Core_3_L1D_RFO_hit 9426683
Core_3_L1D_RFO_miss 5091
Core_3_L1D_prefetches 0
Core_3_L1D_prefetch_hit 0
Core_3_L1D_prefetch_miss 0
Core_3_L1D_writebacks 0
Core_3_L1D_writeback_hit 0
Core_3_L1D_writeback_miss 0
Core_3_L1D_prefetch_requested 0
Core_3_L1D_prefetch_dropped 0
Core_3_L1D_prefetch_issued 0
Core_3_L1D_prefetch_filled 0
Core_3_L1D_prefetch_useful 0
Core_3_L1D_prefetch_useless 0
Core_3_L1D_prefetch_late 0
Core_3_L1D_average_miss_latency 225.24108

Core_3_L1D_rq_access 25202559
Core_3_L1D_rq_forward 0
Core_3_L1D_rq_merged 8056670
Core_3_L1D_rq_to_cache 17145505
Core_3_L1D_rq_full 0

Core_3_L1D_wq_access 11801705
Core_3_L1D_wq_forward 384
Core_3_L1D_wq_merged 184176
Core_3_L1D_wq_to_cache 11617529
Core_3_L1D_wq_full 0

Core_3_L1D_pq_access 0
Core_3_L1D_pq_forward 0
Core_3_L1D_pq_merged 0
Core_3_L1D_pq_to_cache 0
Core_3_L1D_pq_full 0

Core_3_L1D_acc_epochs 206764
Core_3_L1D_acc_level_0 206764
Core_3_L1D_acc_level_1 0
Core_3_L1D_acc_level_2 0
Core_3_L1D_acc_level_3 0
Core_3_L1D_acc_level_4 0
Core_3_L1D_acc_level_5 0
Core_3_L1D_acc_level_6 0
Core_3_L1D_acc_level_7 0
Core_3_L1D_acc_level_8 0
Core_3_L1D_acc_level_9 0

Core_3_L1I_total_access 41026051
Core_3_L1I_total_hit 41022378
Core_3_L1I_total_miss 3673
Core_3_L1I_loads 41026051
Core_3_L1I_load_hit 41022378
Core_3_L1I_load_miss 3673
Core_3_L1I_RFOs 0
Core_3_L1I_RFO_hit 0
Core_3_L1I_RFO_miss 0
Core_3_L1I_prefetches 0
Core_3_L1I_prefetch_hit 0
Core_3_L1I_prefetch_miss 0
Core_3_L1I_writebacks 0
Core_3_L1I_writeback_hit 0
Core_3_L1I_writeback_miss 0
Core_3_L1I_prefetch_requested 0
Core_3_L1I_prefetch_dropped 0
Core_3_L1I_prefetch_issued 0
Core_3_L1I_prefetch_filled 0
Core_3_L1I_prefetch_useful 0
Core_3_L1I_prefetch_useless 0
Core_3_L1I_prefetch_late 0
Core_3_L1I_average_miss_latency 242.55704

Core_3_L1I_rq_access 184284937
Core_3_L1I_rq_forward 0
Core_3_L1I_rq_merged 133880760
Core_3_L1I_rq_to_cache 50404177
Core_3_L1I_rq_full 0

Core_3_L1I_wq_access 0
Core_3_L1I_wq_forward 0
Core_3_L1I_wq_merged 0
Core_3_L1I_wq_to_cache 0
Core_3_L1I_wq_full 0

Core_3_L1I_pq_access 0
Core_3_L1I_pq_forward 0
Core_3_L1I_pq_merged 0
Core_3_L1I_pq_to_cache 0
Core_3_L1I_pq_full 0

Core_3_L1I_acc_epochs 206764
Core_3_L1I_acc_level_0 206764
Core_3_L1I_acc_level_1 0
Core_3_L1I_acc_level_2 0
Core_3_L1I_acc_level_3 0
Core_3_L1I_acc_level_4 0
Core_3_L1I_acc_level_5 0
Core_3_L1I_acc_level_6 0
Core_3_L1I_acc_level_7 0
Core_3_L1I_acc_level_8 0
Core_3_L1I_acc_level_9 0

Core_3_L2C_total_access 576610
Core_3_L2C_total_hit 233200
Core_3_L2C_total_miss 343410
Core_3_L2C_loads 376832
Core_3_L2C_load_hit 36833
Core_3_L2C_load_miss 339999
Core_3_L2C_RFOs 5089
Core_3_L2C_RFO_hit 2129
Core_3_L2C_RFO_miss 2960
Core_3_L2C_prefetches 0
Core_3_L2C_prefetch_hit 0
Core_3_L2C_prefetch_miss 0
Core_3_L2C_writebacks 194689
Core_3_L2C_writeback_hit 194238
Core_3_L2C_writeback_miss 451
Core_3_L2C_prefetch_requested 0
Core_3_L2C_prefetch_dropped 0
Core_3_L2C_prefetch_issued 0
Core_3_L2C_prefetch_filled 0
Core_3_L2C_prefetch_useful 0
Core_3_L2C_prefetch_useless 0
Core_3_L2C_prefetch_late 0
Core_3_L2C_average_miss_latency 192.12252

Core_3_L2C_rq_access 456553
Core_3_L2C_rq_forward 0
Core_3_L2C_rq_merged 0
Core_3_L2C_rq_to_cache 456551
Core_3_L2C_rq_full 0

Core_3_L2C_wq_access 227714
Core_3_L2C_wq_forward 2
Core_3_L2C_wq_merged 0
Core_3_L2C_wq_to_cache 227714
Core_3_L2C_wq_full 0

Core_3_L2C_pq_access 0
Core_3_L2C_pq_forward 0
Core_3_L2C_pq_merged 0
Core_3_L2C_pq_to_cache 0
Core_3_L2C_pq_full 0

Core_3_L2C_acc_epochs 206764
Core_3_L2C_acc_level_0 206764
Core_3_L2C_acc_level_1 0
Core_3_L2C_acc_level_2 0
Core_3_L2C_acc_level_3 0
Core_3_L2C_acc_level_4 0
Core_3_L2C_acc_level_5 0
Core_3_L2C_acc_level_6 0
Core_3_L2C_acc_level_7 0
Core_3_L2C_acc_level_8 0
Core_3_L2C_acc_level_9 0

Core_3_LLC_total_access 527428
Core_3_LLC_total_hit 274870
Core_3_LLC_total_miss 252558
Core_3_LLC_loads 339998
Core_3_LLC_load_hit 138793
Core_3_LLC_load_miss 201205
Core_3_LLC_RFOs 2960
Core_3_LLC_RFO_hit 1641
Core_3_LLC_RFO_miss 1319
Core_3_LLC_prefetches 0
Core_3_LLC_prefetch_hit 0
Core_3_LLC_prefetch_miss 0
Core_3_LLC_writebacks 184470
Core_3_LLC_writeback_hit 134436
Core_3_LLC_writeback_miss 50034
Core_3_LLC_prefetch_requested 0
Core_3_LLC_prefetch_dropped 0
Core_3_LLC_prefetch_issued 0
Core_3_LLC_prefetch_filled 0
Core_3_LLC_prefetch_useful 0
Core_3_LLC_prefetch_useless 0
Core_3_LLC_prefetch_late 0
Core_3_LLC_average_miss_latency 980.30651

Core_3_LLC_rq_access 3157878
Core_3_LLC_rq_forward 0
Core_3_LLC_rq_merged 0
Core_3_LLC_rq_to_cache 3157872
Core_3_LLC_rq_full 0

Core_3_LLC_wq_access 1890731
Core_3_LLC_wq_forward 6
Core_3_LLC_wq_merged 0
Core_3_LLC_wq_to_cache 1890731
Core_3_LLC_wq_full 0

Core_3_LLC_pq_access 0
Core_3_LLC_pq_forward 0
Core_3_LLC_pq_merged 0
Core_3_LLC_pq_to_cache 0
Core_3_LLC_pq_full 0

Core_3_LLC_acc_epochs 1201468
Core_3_LLC_acc_level_0 1201468
Core_3_LLC_acc_level_1 0
Core_3_LLC_acc_level_2 0
Core_3_LLC_acc_level_3 0
Core_3_LLC_acc_level_4 0
Core_3_LLC_acc_level_5 0
Core_3_LLC_acc_level_6 0
Core_3_LLC_acc_level_7 0
Core_3_LLC_acc_level_8 0
Core_3_LLC_acc_level_9 0

Core_3_major_page_fault 0
Core_3_minor_page_fault 2150

Channel_0_RQ_row_buffer_hit 32353
Channel_0_RQ_row_buffer_miss 620950
Channel_0_WQ_row_buffer_hit 21426
Channel_0_WQ_row_buffer_miss 331343
Channel_0_WQ_full 0
Channel_0_dbus_congested 56973

Channel_1_RQ_row_buffer_hit 32315
Channel_1_RQ_row_buffer_miss 621198
Channel_1_WQ_row_buffer_hit 21381
Channel_1_WQ_row_buffer_miss 332172
Channel_1_WQ_full 0
Channel_1_dbus_congested 57770

avg_congested_cycle 10

DRAM_bw_pochs 4805870
DRAM_bw_level_0 4797169
DRAM_bw_level_1 7741
DRAM_bw_level_2 872
DRAM_bw_level_3 88
