*************************************************
   ChampSim Multicore Out-of-Order Simulator
   Last compiled: Mar 31 2025 20:14:32
*************************************************
parsing config file: /data3/config/bingo.ini

trace_0 /data3/CLOUD9/traces/cloud9_phase2_core0.trace.xz
trace_1 /data3/CLOUD9/traces/cloud9_phase2_core1.trace.xz
trace_2 /data3/CLOUD9/traces/cloud9_phase2_core2.trace.xz
trace_3 /data3/CLOUD9/traces/cloud9_phase2_core3.trace.xz
adding L2C_PREFETCHER: Bingo
adding L2C_PREFETCHER: Bingo
adding L2C_PREFETCHER: Bingo
adding L2C_PREFETCHER: Bingo
Initialize SHIP state
warmup_instructions 50000000
simulation_instructions 150000000
champsim_seed 7342
measure_ipc 0
measure_ipc_epoch 1000
measure_dram_bw 1
measure_dram_bw_epoch 256
measure_cache_acc 1
measure_cache_acc_epoch 1024
l1d_perfect 0
l2c_perfect 0
llc_perfect 0
l1d_semi_perfect 0
l2c_semi_perfect 0
llc_semi_perfect 0
semi_perfect_cache_page_buffer_size 64

num_cpus 4
cpu_freq 4000
dram_io_freq 2400
page_size 4096
block_size 64
max_read_per_cycle 8
max_fill_per_cycle 1
dram_channels 2
log2_dram_channels 1
dram_ranks 1
dram_banks 8
dram_rows 65536
dram_columns 128
dram_row_size 8
dram_size 8192
dram_pages 2097152

fetch_width 6
decode_width 6
exec_width 4
lq_width 2
sq_width 2
retire_width 4
scheduler_size 128
branch_mispredict_penalty 20
rob_size 256
lq_size 72
sq_size 56
num_instr_destinations_sparc 4
num_instr_destinations 2
num_instr_sources 4

itlb_set 16
itlb_way 8
itlb_rq_size 16
itlb_wq_size 16
itlb_pq_size 0
itlb_mshr_size 8
itlb_latency 1

dtlb_set 16
dtlb_way 4
dtlb_rq_size 16
dtlb_wq_size 16
dtlb_pq_size 0
dtlb_mshr_size 8
dtlb_latency 1

stlb_set 128
stlb_way 12
stlb_rq_size 32
stlb_wq_size 32
stlb_pq_size 0
stlb_mshr_size 16
stlb_latency 8

l1i_size 32
l1i_set 64
l1i_way 8
l1i_rq_size 64
l1i_wq_size 64
l1i_pq_size 8
l1i_mshr_size 8
l1i_latency 1

l1d_size 32
l1d_set 64
l1d_way 8
l1d_rq_size 64
l1d_wq_size 64
l1d_pq_size 8
l1d_mshr_size 16
l1d_latency 4

l2c_size 256
l2c_set 512
l2c_way 8
l2c_rq_size 32
l2c_wq_size 32
l2c_pq_size 32
l2c_mshr_size 32
l2c_latency 10

llc_size 8192
llc_set 8192
llc_way 16
llc_rq_size 128
llc_wq_size 128
llc_pq_size 128
llc_mshr_size 256
llc_latency 20

dram_channel_width 8
dram_wq_size 64
dram_rq_size 64
tRP 15
tRCD 15
tCAS 12.5
dram_dbus_turn_around_time 30
dram_write_high_wm 56
dram_write_low_wm 48
min_dram_writes_per_switch 16
dram_mtps 2400
dram_dbus_return_time 13

bingo_region_size 2048
bingo_pattern_len 32
bingo_pc_width 16
bingo_min_addr_width 5
bingo_max_addr_width 16
bingo_ft_size 64
bingo_at_size 128
bingo_pht_size 4096
bingo_pht_ways 16
bingo_pf_streamer_size 128
bingo_debug_level 0
bingo_l1d_thresh 1.01
bingo_l2c_thresh 0.8
bingo_llc_thresh 0.05
bingo_pc_address_fill_level L2


Heartbeat CPU  3 instructions:    1000002 cycles:     390683 heartbeat IPC: 2.55963 cumulative IPC: 2.55963 (Simulation time: 0 hr 0 min 6 sec) 
Heartbeat CPU  1 instructions:    1000002 cycles:     424372 heartbeat IPC: 2.35643 cumulative IPC: 2.35643 (Simulation time: 0 hr 0 min 7 sec) 
Heartbeat CPU  2 instructions:    1000001 cycles:     441137 heartbeat IPC: 2.26687 cumulative IPC: 2.26687 (Simulation time: 0 hr 0 min 7 sec) 
Heartbeat CPU  0 instructions:    1000002 cycles:     446608 heartbeat IPC: 2.23910 cumulative IPC: 2.23910 (Simulation time: 0 hr 0 min 7 sec) 
Heartbeat CPU  3 instructions:    2000003 cycles:     790695 heartbeat IPC: 2.49993 cumulative IPC: 2.52942 (Simulation time: 0 hr 0 min 13 sec) 
Heartbeat CPU  1 instructions:    2000000 cycles:     814296 heartbeat IPC: 2.56460 cumulative IPC: 2.45611 (Simulation time: 0 hr 0 min 13 sec) 
Heartbeat CPU  2 instructions:    2000000 cycles:     899420 heartbeat IPC: 2.18206 cumulative IPC: 2.22366 (Simulation time: 0 hr 0 min 15 sec) 
Heartbeat CPU  0 instructions:    2000000 cycles:     907900 heartbeat IPC: 2.16782 cumulative IPC: 2.20289 (Simulation time: 0 hr 0 min 15 sec) 
Heartbeat CPU  3 instructions:    3000000 cycles:    1178173 heartbeat IPC: 2.58078 cumulative IPC: 2.54632 (Simulation time: 0 hr 0 min 19 sec) 
Heartbeat CPU  1 instructions:    3000003 cycles:    1199623 heartbeat IPC: 2.59521 cumulative IPC: 2.50079 (Simulation time: 0 hr 0 min 19 sec) 
Heartbeat CPU  2 instructions:    3000003 cycles:    1322185 heartbeat IPC: 2.36539 cumulative IPC: 2.26897 (Simulation time: 0 hr 0 min 22 sec) 
Heartbeat CPU  0 instructions:    3000000 cycles:    1345665 heartbeat IPC: 2.28433 cumulative IPC: 2.22938 (Simulation time: 0 hr 0 min 22 sec) 
Heartbeat CPU  3 instructions:    4000000 cycles:    1567443 heartbeat IPC: 2.56891 cumulative IPC: 2.55193 (Simulation time: 0 hr 0 min 26 sec) 
Heartbeat CPU  1 instructions:    4000000 cycles:    1581401 heartbeat IPC: 2.61932 cumulative IPC: 2.52940 (Simulation time: 0 hr 0 min 26 sec) 
Heartbeat CPU  2 instructions:    4000000 cycles:    1793112 heartbeat IPC: 2.12347 cumulative IPC: 2.23076 (Simulation time: 0 hr 0 min 29 sec) 
Heartbeat CPU  0 instructions:    4000000 cycles:    1842145 heartbeat IPC: 2.01418 cumulative IPC: 2.17138 (Simulation time: 0 hr 0 min 30 sec) 
Heartbeat CPU  3 instructions:    5000000 cycles:    1957962 heartbeat IPC: 2.56069 cumulative IPC: 2.55368 (Simulation time: 0 hr 0 min 32 sec) 
Heartbeat CPU  1 instructions:    5000001 cycles:    1965845 heartbeat IPC: 2.60116 cumulative IPC: 2.54344 (Simulation time: 0 hr 0 min 32 sec) 
Heartbeat CPU  2 instructions:    5000001 cycles:    2240718 heartbeat IPC: 2.23411 cumulative IPC: 2.23143 (Simulation time: 0 hr 0 min 36 sec) 
Heartbeat CPU  0 instructions:    5000001 cycles:    2274581 heartbeat IPC: 2.31248 cumulative IPC: 2.19821 (Simulation time: 0 hr 0 min 37 sec) 
Heartbeat CPU  3 instructions:    6000003 cycles:    2347703 heartbeat IPC: 2.56581 cumulative IPC: 2.55569 (Simulation time: 0 hr 0 min 38 sec) 
Heartbeat CPU  1 instructions:    6000000 cycles:    2348958 heartbeat IPC: 2.61019 cumulative IPC: 2.55432 (Simulation time: 0 hr 0 min 38 sec) 
Heartbeat CPU  2 instructions:    6000000 cycles:    2659544 heartbeat IPC: 2.38762 cumulative IPC: 2.25603 (Simulation time: 0 hr 0 min 43 sec) 
Heartbeat CPU  0 instructions:    6000002 cycles:    2706636 heartbeat IPC: 2.31452 cumulative IPC: 2.21677 (Simulation time: 0 hr 0 min 44 sec) 
Heartbeat CPU  1 instructions:    7000001 cycles:    2732960 heartbeat IPC: 2.60416 cumulative IPC: 2.56133 (Simulation time: 0 hr 0 min 45 sec) 
Heartbeat CPU  3 instructions:    7000002 cycles:    2739193 heartbeat IPC: 2.55434 cumulative IPC: 2.55550 (Simulation time: 0 hr 0 min 45 sec) 
Heartbeat CPU  2 instructions:    7000003 cycles:    3097931 heartbeat IPC: 2.28110 cumulative IPC: 2.25957 (Simulation time: 0 hr 0 min 51 sec) 
Heartbeat CPU  1 instructions:    8000000 cycles:    3113079 heartbeat IPC: 2.63075 cumulative IPC: 2.56980 (Simulation time: 0 hr 0 min 51 sec) 
Heartbeat CPU  3 instructions:    8000000 cycles:    3129210 heartbeat IPC: 2.56399 cumulative IPC: 2.55656 (Simulation time: 0 hr 0 min 51 sec) 
Heartbeat CPU  0 instructions:    7000003 cycles:    3146342 heartbeat IPC: 2.27425 cumulative IPC: 2.22481 (Simulation time: 0 hr 0 min 51 sec) 
Heartbeat CPU  1 instructions:    9000003 cycles:    3496426 heartbeat IPC: 2.60861 cumulative IPC: 2.57406 (Simulation time: 0 hr 0 min 57 sec) 
Heartbeat CPU  2 instructions:    8000000 cycles:    3517891 heartbeat IPC: 2.38117 cumulative IPC: 2.27409 (Simulation time: 0 hr 0 min 57 sec) 
Heartbeat CPU  3 instructions:    9000003 cycles:    3518573 heartbeat IPC: 2.56831 cumulative IPC: 2.55786 (Simulation time: 0 hr 0 min 57 sec) 
Heartbeat CPU  0 instructions:    8000000 cycles:    3583916 heartbeat IPC: 2.28532 cumulative IPC: 2.23220 (Simulation time: 0 hr 0 min 59 sec) 
Heartbeat CPU  1 instructions:   10000002 cycles:    3885376 heartbeat IPC: 2.57102 cumulative IPC: 2.57375 (Simulation time: 0 hr 1 min 3 sec) 
Heartbeat CPU  3 instructions:   10000001 cycles:    3907927 heartbeat IPC: 2.56835 cumulative IPC: 2.55890 (Simulation time: 0 hr 1 min 3 sec) 
Heartbeat CPU  2 instructions:    9000001 cycles:    4095260 heartbeat IPC: 1.73200 cumulative IPC: 2.19766 (Simulation time: 0 hr 1 min 6 sec) 
Heartbeat CPU  0 instructions:    9000001 cycles:    4189592 heartbeat IPC: 1.65105 cumulative IPC: 2.14818 (Simulation time: 0 hr 1 min 7 sec) 
Heartbeat CPU  1 instructions:   11000002 cycles:    4267797 heartbeat IPC: 2.61492 cumulative IPC: 2.57744 (Simulation time: 0 hr 1 min 9 sec) 
Heartbeat CPU  3 instructions:   11000000 cycles:    4297123 heartbeat IPC: 2.56940 cumulative IPC: 2.55985 (Simulation time: 0 hr 1 min 9 sec) 
Heartbeat CPU  2 instructions:   10000001 cycles:    4527950 heartbeat IPC: 2.31112 cumulative IPC: 2.20851 (Simulation time: 0 hr 1 min 13 sec) 
Heartbeat CPU  0 instructions:   10000002 cycles:    4627011 heartbeat IPC: 2.28614 cumulative IPC: 2.16122 (Simulation time: 0 hr 1 min 15 sec) 
Heartbeat CPU  1 instructions:   12000000 cycles:    4650805 heartbeat IPC: 2.61091 cumulative IPC: 2.58020 (Simulation time: 0 hr 1 min 15 sec) 
Heartbeat CPU  3 instructions:   12000000 cycles:    4686786 heartbeat IPC: 2.56632 cumulative IPC: 2.56039 (Simulation time: 0 hr 1 min 16 sec) 
Heartbeat CPU  2 instructions:   11000000 cycles:    4959657 heartbeat IPC: 2.31638 cumulative IPC: 2.21790 (Simulation time: 0 hr 1 min 20 sec) 
Heartbeat CPU  1 instructions:   13000000 cycles:    5032476 heartbeat IPC: 2.62006 cumulative IPC: 2.58322 (Simulation time: 0 hr 1 min 21 sec) 
Heartbeat CPU  0 instructions:   11000002 cycles:    5065727 heartbeat IPC: 2.27938 cumulative IPC: 2.17146 (Simulation time: 0 hr 1 min 22 sec) 
Heartbeat CPU  3 instructions:   13000000 cycles:    5078171 heartbeat IPC: 2.55503 cumulative IPC: 2.55998 (Simulation time: 0 hr 1 min 22 sec) 
Heartbeat CPU  2 instructions:   12000000 cycles:    5394171 heartbeat IPC: 2.30142 cumulative IPC: 2.22462 (Simulation time: 0 hr 1 min 27 sec) 
Heartbeat CPU  1 instructions:   14000003 cycles:    5413499 heartbeat IPC: 2.62452 cumulative IPC: 2.58613 (Simulation time: 0 hr 1 min 28 sec) 
Heartbeat CPU  3 instructions:   14000001 cycles:    5468502 heartbeat IPC: 2.56193 cumulative IPC: 2.56012 (Simulation time: 0 hr 1 min 28 sec) 
Heartbeat CPU  0 instructions:   12000000 cycles:    5504482 heartbeat IPC: 2.27917 cumulative IPC: 2.18004 (Simulation time: 0 hr 1 min 29 sec) 
Heartbeat CPU  1 instructions:   15000000 cycles:    5794262 heartbeat IPC: 2.62630 cumulative IPC: 2.58877 (Simulation time: 0 hr 1 min 33 sec) 
Heartbeat CPU  2 instructions:   13000003 cycles:    5854565 heartbeat IPC: 2.17206 cumulative IPC: 2.22049 (Simulation time: 0 hr 1 min 34 sec) 
Heartbeat CPU  3 instructions:   15000001 cycles:    5862647 heartbeat IPC: 2.53714 cumulative IPC: 2.55857 (Simulation time: 0 hr 1 min 35 sec) 
Heartbeat CPU  0 instructions:   13000001 cycles:    5968784 heartbeat IPC: 2.15377 cumulative IPC: 2.17800 (Simulation time: 0 hr 1 min 36 sec) 
Heartbeat CPU  1 instructions:   16000000 cycles:    6175298 heartbeat IPC: 2.62442 cumulative IPC: 2.59097 (Simulation time: 0 hr 1 min 39 sec) 
Heartbeat CPU  3 instructions:   16000000 cycles:    6256619 heartbeat IPC: 2.53825 cumulative IPC: 2.55729 (Simulation time: 0 hr 1 min 40 sec) 
Heartbeat CPU  2 instructions:   14000000 cycles:    6346879 heartbeat IPC: 2.03122 cumulative IPC: 2.20581 (Simulation time: 0 hr 1 min 42 sec) 
Heartbeat CPU  0 instructions:   14000002 cycles:    6441429 heartbeat IPC: 2.11575 cumulative IPC: 2.17343 (Simulation time: 0 hr 1 min 43 sec) 
Heartbeat CPU  1 instructions:   17000001 cycles:    6555376 heartbeat IPC: 2.63104 cumulative IPC: 2.59329 (Simulation time: 0 hr 1 min 45 sec) 
Heartbeat CPU  3 instructions:   17000001 cycles:    6652674 heartbeat IPC: 2.52490 cumulative IPC: 2.55536 (Simulation time: 0 hr 1 min 47 sec) 
Heartbeat CPU  2 instructions:   15000001 cycles:    6778231 heartbeat IPC: 2.31829 cumulative IPC: 2.21297 (Simulation time: 0 hr 1 min 49 sec) 
Heartbeat CPU  0 instructions:   15000002 cycles:    6891099 heartbeat IPC: 2.22385 cumulative IPC: 2.17672 (Simulation time: 0 hr 1 min 50 sec) 
Heartbeat CPU  1 instructions:   18000002 cycles:    6937039 heartbeat IPC: 2.62012 cumulative IPC: 2.59477 (Simulation time: 0 hr 1 min 51 sec) 
Heartbeat CPU  3 instructions:   18000000 cycles:    7046517 heartbeat IPC: 2.53908 cumulative IPC: 2.55445 (Simulation time: 0 hr 1 min 53 sec) 
Heartbeat CPU  2 instructions:   16000000 cycles:    7216249 heartbeat IPC: 2.28301 cumulative IPC: 2.21722 (Simulation time: 0 hr 1 min 56 sec) 
Heartbeat CPU  1 instructions:   19000002 cycles:    7321992 heartbeat IPC: 2.59772 cumulative IPC: 2.59492 (Simulation time: 0 hr 1 min 58 sec) 
Heartbeat CPU  0 instructions:   16000000 cycles:    7328894 heartbeat IPC: 2.28417 cumulative IPC: 2.18314 (Simulation time: 0 hr 1 min 58 sec) 
Heartbeat CPU  3 instructions:   19000001 cycles:    7441337 heartbeat IPC: 2.53280 cumulative IPC: 2.55330 (Simulation time: 0 hr 1 min 59 sec) 
Heartbeat CPU  2 instructions:   17000000 cycles:    7668971 heartbeat IPC: 2.20886 cumulative IPC: 2.21673 (Simulation time: 0 hr 2 min 3 sec) 
Heartbeat CPU  1 instructions:   20000000 cycles:    7706549 heartbeat IPC: 2.60039 cumulative IPC: 2.59520 (Simulation time: 0 hr 2 min 4 sec) 
Heartbeat CPU  0 instructions:   17000002 cycles:    7788571 heartbeat IPC: 2.17544 cumulative IPC: 2.18269 (Simulation time: 0 hr 2 min 5 sec) 
Heartbeat CPU  3 instructions:   20000000 cycles:    7835185 heartbeat IPC: 2.53905 cumulative IPC: 2.55259 (Simulation time: 0 hr 2 min 6 sec) 
Heartbeat CPU  1 instructions:   21000002 cycles:    8087225 heartbeat IPC: 2.62691 cumulative IPC: 2.59669 (Simulation time: 0 hr 2 min 10 sec) 
Heartbeat CPU  2 instructions:   18000001 cycles:    8097071 heartbeat IPC: 2.33591 cumulative IPC: 2.22303 (Simulation time: 0 hr 2 min 10 sec) 
Heartbeat CPU  0 instructions:   18000001 cycles:    8225992 heartbeat IPC: 2.28612 cumulative IPC: 2.18819 (Simulation time: 0 hr 2 min 12 sec) 
Heartbeat CPU  3 instructions:   21000003 cycles:    8229216 heartbeat IPC: 2.53788 cumulative IPC: 2.55188 (Simulation time: 0 hr 2 min 12 sec) 
Heartbeat CPU  1 instructions:   22000002 cycles:    8467160 heartbeat IPC: 2.63203 cumulative IPC: 2.59827 (Simulation time: 0 hr 2 min 16 sec) 
Heartbeat CPU  2 instructions:   19000002 cycles:    8584449 heartbeat IPC: 2.05180 cumulative IPC: 2.21330 (Simulation time: 0 hr 2 min 18 sec) 
Heartbeat CPU  3 instructions:   22000000 cycles:    8623263 heartbeat IPC: 2.53776 cumulative IPC: 2.55124 (Simulation time: 0 hr 2 min 18 sec) 
Heartbeat CPU  0 instructions:   19000001 cycles:    8724651 heartbeat IPC: 2.00538 cumulative IPC: 2.17774 (Simulation time: 0 hr 2 min 20 sec) 
Heartbeat CPU  1 instructions:   23000001 cycles:    8848314 heartbeat IPC: 2.62361 cumulative IPC: 2.59937 (Simulation time: 0 hr 2 min 22 sec) 
Heartbeat CPU  2 instructions:   20000000 cycles:    9005375 heartbeat IPC: 2.37571 cumulative IPC: 2.22090 (Simulation time: 0 hr 2 min 25 sec) 
Heartbeat CPU  3 instructions:   23000001 cycles:    9016038 heartbeat IPC: 2.54599 cumulative IPC: 2.55101 (Simulation time: 0 hr 2 min 25 sec) 
Heartbeat CPU  0 instructions:   20000000 cycles:    9150348 heartbeat IPC: 2.34909 cumulative IPC: 2.18571 (Simulation time: 0 hr 2 min 27 sec) 
Heartbeat CPU  1 instructions:   24000000 cycles:    9229040 heartbeat IPC: 2.62656 cumulative IPC: 2.60049 (Simulation time: 0 hr 2 min 28 sec) 
Heartbeat CPU  3 instructions:   24000000 cycles:    9410563 heartbeat IPC: 2.53469 cumulative IPC: 2.55033 (Simulation time: 0 hr 2 min 31 sec) 
Heartbeat CPU  2 instructions:   21000001 cycles:    9429538 heartbeat IPC: 2.35759 cumulative IPC: 2.22704 (Simulation time: 0 hr 2 min 32 sec) 
Heartbeat CPU  0 instructions:   21000002 cycles:    9588867 heartbeat IPC: 2.28041 cumulative IPC: 2.19004 (Simulation time: 0 hr 2 min 34 sec) 
Heartbeat CPU  1 instructions:   25000000 cycles:    9609935 heartbeat IPC: 2.62540 cumulative IPC: 2.60147 (Simulation time: 0 hr 2 min 35 sec) 
Heartbeat CPU  3 instructions:   25000003 cycles:    9805196 heartbeat IPC: 2.53401 cumulative IPC: 2.54967 (Simulation time: 0 hr 2 min 38 sec) 
Heartbeat CPU  2 instructions:   22000001 cycles:    9853957 heartbeat IPC: 2.35616 cumulative IPC: 2.23261 (Simulation time: 0 hr 2 min 39 sec) 
Heartbeat CPU  0 instructions:   22000000 cycles:   10021178 heartbeat IPC: 2.31314 cumulative IPC: 2.19535 (Simulation time: 0 hr 2 min 41 sec) 
Heartbeat CPU  1 instructions:   26000003 cycles:   10173670 heartbeat IPC: 1.77389 cumulative IPC: 2.55562 (Simulation time: 0 hr 2 min 43 sec) 
Heartbeat CPU  3 instructions:   26000003 cycles:   10200693 heartbeat IPC: 2.52846 cumulative IPC: 2.54885 (Simulation time: 0 hr 2 min 44 sec) 
Heartbeat CPU  2 instructions:   23000003 cycles:   10274503 heartbeat IPC: 2.37787 cumulative IPC: 2.23855 (Simulation time: 0 hr 2 min 45 sec) 
Heartbeat CPU  0 instructions:   23000003 cycles:   10458208 heartbeat IPC: 2.28818 cumulative IPC: 2.19923 (Simulation time: 0 hr 2 min 48 sec) 
Heartbeat CPU  1 instructions:   27000001 cycles:   10556695 heartbeat IPC: 2.61079 cumulative IPC: 2.55762 (Simulation time: 0 hr 2 min 49 sec) 
Heartbeat CPU  3 instructions:   27000002 cycles:   10597110 heartbeat IPC: 2.52259 cumulative IPC: 2.54786 (Simulation time: 0 hr 2 min 50 sec) 
Heartbeat CPU  2 instructions:   24000000 cycles:   10851619 heartbeat IPC: 1.73275 cumulative IPC: 2.21165 (Simulation time: 0 hr 2 min 53 sec) 
Heartbeat CPU  1 instructions:   28000000 cycles:   10938010 heartbeat IPC: 2.62250 cumulative IPC: 2.55988 (Simulation time: 0 hr 2 min 55 sec) 
Heartbeat CPU  3 instructions:   28000000 cycles:   10987494 heartbeat IPC: 2.56158 cumulative IPC: 2.54835 (Simulation time: 0 hr 2 min 55 sec) 
Heartbeat CPU  0 instructions:   24000000 cycles:   11064896 heartbeat IPC: 1.64829 cumulative IPC: 2.16902 (Simulation time: 0 hr 2 min 57 sec) 
Heartbeat CPU  2 instructions:   25000001 cycles:   11283971 heartbeat IPC: 2.31293 cumulative IPC: 2.21553 (Simulation time: 0 hr 3 min 0 sec) 
Heartbeat CPU  1 instructions:   29000002 cycles:   11318216 heartbeat IPC: 2.63016 cumulative IPC: 2.56224 (Simulation time: 0 hr 3 min 1 sec) 
Heartbeat CPU  3 instructions:   29000002 cycles:   11381043 heartbeat IPC: 2.54098 cumulative IPC: 2.54810 (Simulation time: 0 hr 3 min 2 sec) 
Heartbeat CPU  0 instructions:   25000003 cycles:   11504679 heartbeat IPC: 2.27386 cumulative IPC: 2.17303 (Simulation time: 0 hr 3 min 4 sec) 
Heartbeat CPU  1 instructions:   30000003 cycles:   11700525 heartbeat IPC: 2.61569 cumulative IPC: 2.56399 (Simulation time: 0 hr 3 min 7 sec) 
Heartbeat CPU  2 instructions:   26000000 cycles:   11713296 heartbeat IPC: 2.32924 cumulative IPC: 2.21970 (Simulation time: 0 hr 3 min 7 sec) 
Heartbeat CPU  3 instructions:   30000001 cycles:   11776100 heartbeat IPC: 2.53128 cumulative IPC: 2.54753 (Simulation time: 0 hr 3 min 8 sec) 
Heartbeat CPU  0 instructions:   26000003 cycles:   11937726 heartbeat IPC: 2.30922 cumulative IPC: 2.17797 (Simulation time: 0 hr 3 min 11 sec) 
Heartbeat CPU  1 instructions:   31000003 cycles:   12082728 heartbeat IPC: 2.61641 cumulative IPC: 2.56565 (Simulation time: 0 hr 3 min 13 sec) 
Heartbeat CPU  2 instructions:   27000001 cycles:   12156954 heartbeat IPC: 2.25399 cumulative IPC: 2.22095 (Simulation time: 0 hr 3 min 15 sec) 
Heartbeat CPU  3 instructions:   31000000 cycles:   12171285 heartbeat IPC: 2.53046 cumulative IPC: 2.54698 (Simulation time: 0 hr 3 min 15 sec) 
Heartbeat CPU  0 instructions:   27000000 cycles:   12416234 heartbeat IPC: 2.08982 cumulative IPC: 2.17457 (Simulation time: 0 hr 3 min 18 sec) 
Heartbeat CPU  1 instructions:   32000000 cycles:   12463763 heartbeat IPC: 2.62442 cumulative IPC: 2.56744 (Simulation time: 0 hr 3 min 19 sec) 
Heartbeat CPU  3 instructions:   32000000 cycles:   12567209 heartbeat IPC: 2.52574 cumulative IPC: 2.54631 (Simulation time: 0 hr 3 min 21 sec) 
Heartbeat CPU  2 instructions:   28000000 cycles:   12621243 heartbeat IPC: 2.15383 cumulative IPC: 2.21848 (Simulation time: 0 hr 3 min 22 sec) 
Heartbeat CPU  1 instructions:   33000003 cycles:   12844208 heartbeat IPC: 2.62851 cumulative IPC: 2.56925 (Simulation time: 0 hr 3 min 26 sec) 
Heartbeat CPU  0 instructions:   28000000 cycles:   12881114 heartbeat IPC: 2.15109 cumulative IPC: 2.17373 (Simulation time: 0 hr 3 min 26 sec) 
Heartbeat CPU  3 instructions:   33000000 cycles:   12962383 heartbeat IPC: 2.53053 cumulative IPC: 2.54583 (Simulation time: 0 hr 3 min 27 sec) 
Heartbeat CPU  2 instructions:   29000003 cycles:   13068012 heartbeat IPC: 2.23830 cumulative IPC: 2.21916 (Simulation time: 0 hr 3 min 29 sec) 
Heartbeat CPU  1 instructions:   34000002 cycles:   13226623 heartbeat IPC: 2.61496 cumulative IPC: 2.57057 (Simulation time: 0 hr 3 min 32 sec) 
Heartbeat CPU  0 instructions:   29000002 cycles:   13316227 heartbeat IPC: 2.29826 cumulative IPC: 2.17779 (Simulation time: 0 hr 3 min 33 sec) 
Heartbeat CPU  3 instructions:   34000002 cycles:   13357549 heartbeat IPC: 2.53059 cumulative IPC: 2.54538 (Simulation time: 0 hr 3 min 34 sec) 
Heartbeat CPU  2 instructions:   30000000 cycles:   13509717 heartbeat IPC: 2.26395 cumulative IPC: 2.22062 (Simulation time: 0 hr 3 min 36 sec) 
Heartbeat CPU  1 instructions:   35000002 cycles:   13608295 heartbeat IPC: 2.62005 cumulative IPC: 2.57196 (Simulation time: 0 hr 3 min 38 sec) 
Heartbeat CPU  3 instructions:   35000000 cycles:   13752232 heartbeat IPC: 2.53367 cumulative IPC: 2.54504 (Simulation time: 0 hr 3 min 40 sec) 
Heartbeat CPU  0 instructions:   30000001 cycles:   13762200 heartbeat IPC: 2.24229 cumulative IPC: 2.17988 (Simulation time: 0 hr 3 min 40 sec) 
Heartbeat CPU  2 instructions:   31000001 cycles:   13936039 heartbeat IPC: 2.34565 cumulative IPC: 2.22445 (Simulation time: 0 hr 3 min 43 sec) 
Heartbeat CPU  1 instructions:   36000000 cycles:   13991271 heartbeat IPC: 2.61112 cumulative IPC: 2.57303 (Simulation time: 0 hr 3 min 44 sec) 
Heartbeat CPU  3 instructions:   36000000 cycles:   14147294 heartbeat IPC: 2.53125 cumulative IPC: 2.54466 (Simulation time: 0 hr 3 min 46 sec) 
Heartbeat CPU  0 instructions:   31000003 cycles:   14227362 heartbeat IPC: 2.14979 cumulative IPC: 2.17890 (Simulation time: 0 hr 3 min 48 sec) 
Heartbeat CPU  2 instructions:   32000000 cycles:   14388690 heartbeat IPC: 2.20921 cumulative IPC: 2.22397 (Simulation time: 0 hr 3 min 50 sec) 
Heartbeat CPU  1 instructions:   37000000 cycles:   14416578 heartbeat IPC: 2.35124 cumulative IPC: 2.56649 (Simulation time: 0 hr 3 min 51 sec) 
Heartbeat CPU  3 instructions:   37000001 cycles:   14542065 heartbeat IPC: 2.53312 cumulative IPC: 2.54434 (Simulation time: 0 hr 3 min 53 sec) 
Heartbeat CPU  0 instructions:   32000000 cycles:   14661571 heartbeat IPC: 2.30303 cumulative IPC: 2.18258 (Simulation time: 0 hr 3 min 55 sec) 
Heartbeat CPU  2 instructions:   33000000 cycles:   14810988 heartbeat IPC: 2.36800 cumulative IPC: 2.22808 (Simulation time: 0 hr 3 min 57 sec) 
Heartbeat CPU  1 instructions:   38000002 cycles:   14871199 heartbeat IPC: 2.19964 cumulative IPC: 2.55527 (Simulation time: 0 hr 3 min 58 sec) 
Heartbeat CPU  3 instructions:   38000001 cycles:   14937173 heartbeat IPC: 2.53095 cumulative IPC: 2.54399 (Simulation time: 0 hr 3 min 59 sec) 
Heartbeat CPU  0 instructions:   33000000 cycles:   15096219 heartbeat IPC: 2.30071 cumulative IPC: 2.18598 (Simulation time: 0 hr 4 min 2 sec) 
Heartbeat CPU  2 instructions:   34000001 cycles:   15301026 heartbeat IPC: 2.04066 cumulative IPC: 2.22207 (Simulation time: 0 hr 4 min 5 sec) 
Heartbeat CPU  1 instructions:   39000001 cycles:   15326021 heartbeat IPC: 2.19866 cumulative IPC: 2.54469 (Simulation time: 0 hr 4 min 5 sec) 
Heartbeat CPU  3 instructions:   39000001 cycles:   15331575 heartbeat IPC: 2.53548 cumulative IPC: 2.54377 (Simulation time: 0 hr 4 min 5 sec) 
Heartbeat CPU  0 instructions:   34000003 cycles:   15591342 heartbeat IPC: 2.01971 cumulative IPC: 2.18070 (Simulation time: 0 hr 4 min 9 sec) 
Heartbeat CPU  3 instructions:   40000000 cycles:   15719452 heartbeat IPC: 2.57813 cumulative IPC: 2.54462 (Simulation time: 0 hr 4 min 11 sec) 
Heartbeat CPU  2 instructions:   35000002 cycles:   15724163 heartbeat IPC: 2.36330 cumulative IPC: 2.22587 (Simulation time: 0 hr 4 min 12 sec) 
Heartbeat CPU  1 instructions:   40000000 cycles:   15776634 heartbeat IPC: 2.21920 cumulative IPC: 2.53540 (Simulation time: 0 hr 4 min 12 sec) 
Heartbeat CPU  0 instructions:   35000003 cycles:   16021598 heartbeat IPC: 2.32420 cumulative IPC: 2.18455 (Simulation time: 0 hr 4 min 16 sec) 
Heartbeat CPU  3 instructions:   41000002 cycles:   16113863 heartbeat IPC: 2.53543 cumulative IPC: 2.54439 (Simulation time: 0 hr 4 min 18 sec) 
Heartbeat CPU  2 instructions:   36000000 cycles:   16148690 heartbeat IPC: 2.35556 cumulative IPC: 2.22928 (Simulation time: 0 hr 4 min 18 sec) 
Heartbeat CPU  1 instructions:   41000002 cycles:   16233785 heartbeat IPC: 2.18747 cumulative IPC: 2.52560 (Simulation time: 0 hr 4 min 20 sec) 
Heartbeat CPU  0 instructions:   36000000 cycles:   16458220 heartbeat IPC: 2.29030 cumulative IPC: 2.18736 (Simulation time: 0 hr 4 min 23 sec) 
Heartbeat CPU  3 instructions:   42000002 cycles:   16507467 heartbeat IPC: 2.54062 cumulative IPC: 2.54430 (Simulation time: 0 hr 4 min 24 sec) 
Heartbeat CPU  2 instructions:   37000000 cycles:   16569851 heartbeat IPC: 2.37439 cumulative IPC: 2.23297 (Simulation time: 0 hr 4 min 25 sec) 
Heartbeat CPU  1 instructions:   42000000 cycles:   16652896 heartbeat IPC: 2.38600 cumulative IPC: 2.52208 (Simulation time: 0 hr 4 min 26 sec) 
Heartbeat CPU  0 instructions:   37000001 cycles:   16892008 heartbeat IPC: 2.30528 cumulative IPC: 2.19039 (Simulation time: 0 hr 4 min 30 sec) 
Heartbeat CPU  3 instructions:   43000002 cycles:   16902521 heartbeat IPC: 2.53130 cumulative IPC: 2.54400 (Simulation time: 0 hr 4 min 30 sec) 
Heartbeat CPU  2 instructions:   38000001 cycles:   16992341 heartbeat IPC: 2.36692 cumulative IPC: 2.23630 (Simulation time: 0 hr 4 min 32 sec) 
Heartbeat CPU  1 instructions:   43000001 cycles:   17072682 heartbeat IPC: 2.38217 cumulative IPC: 2.51864 (Simulation time: 0 hr 4 min 33 sec) 
Heartbeat CPU  3 instructions:   44000000 cycles:   17297159 heartbeat IPC: 2.53396 cumulative IPC: 2.54377 (Simulation time: 0 hr 4 min 36 sec) 
Heartbeat CPU  1 instructions:   44000000 cycles:   17483125 heartbeat IPC: 2.43639 cumulative IPC: 2.51671 (Simulation time: 0 hr 4 min 39 sec) 
Heartbeat CPU  0 instructions:   38000002 cycles:   17493738 heartbeat IPC: 1.66188 cumulative IPC: 2.17221 (Simulation time: 0 hr 4 min 39 sec) 
Heartbeat CPU  2 instructions:   39000000 cycles:   17572223 heartbeat IPC: 1.72449 cumulative IPC: 2.21941 (Simulation time: 0 hr 4 min 40 sec) 
Heartbeat CPU  3 instructions:   45000002 cycles:   17690313 heartbeat IPC: 2.54354 cumulative IPC: 2.54377 (Simulation time: 0 hr 4 min 42 sec) 
Heartbeat CPU  1 instructions:   45000003 cycles:   17898727 heartbeat IPC: 2.40616 cumulative IPC: 2.51415 (Simulation time: 0 hr 4 min 45 sec) 
Heartbeat CPU  0 instructions:   39000003 cycles:   17930452 heartbeat IPC: 2.28983 cumulative IPC: 2.17507 (Simulation time: 0 hr 4 min 46 sec) 
Heartbeat CPU  2 instructions:   40000000 cycles:   18002575 heartbeat IPC: 2.32368 cumulative IPC: 2.22190 (Simulation time: 0 hr 4 min 47 sec) 
Heartbeat CPU  3 instructions:   46000002 cycles:   18083268 heartbeat IPC: 2.54482 cumulative IPC: 2.54379 (Simulation time: 0 hr 4 min 48 sec) 
Heartbeat CPU  1 instructions:   46000003 cycles:   18312403 heartbeat IPC: 2.41735 cumulative IPC: 2.51196 (Simulation time: 0 hr 4 min 52 sec) 
Heartbeat CPU  0 instructions:   40000000 cycles:   18370488 heartbeat IPC: 2.27253 cumulative IPC: 2.17741 (Simulation time: 0 hr 4 min 53 sec) 
Heartbeat CPU  2 instructions:   41000002 cycles:   18430583 heartbeat IPC: 2.33641 cumulative IPC: 2.22456 (Simulation time: 0 hr 4 min 54 sec) 
Heartbeat CPU  3 instructions:   47000003 cycles:   18477156 heartbeat IPC: 2.53880 cumulative IPC: 2.54368 (Simulation time: 0 hr 4 min 55 sec) 
Heartbeat CPU  1 instructions:   47000003 cycles:   18724152 heartbeat IPC: 2.42866 cumulative IPC: 2.51013 (Simulation time: 0 hr 4 min 59 sec) 
Heartbeat CPU  0 instructions:   41000001 cycles:   18799388 heartbeat IPC: 2.33155 cumulative IPC: 2.18092 (Simulation time: 0 hr 5 min 0 sec) 
Heartbeat CPU  3 instructions:   48000000 cycles:   18870777 heartbeat IPC: 2.54051 cumulative IPC: 2.54362 (Simulation time: 0 hr 5 min 1 sec) 
Heartbeat CPU  2 instructions:   42000002 cycles:   18879849 heartbeat IPC: 2.22585 cumulative IPC: 2.22459 (Simulation time: 0 hr 5 min 1 sec) 
Heartbeat CPU  1 instructions:   48000000 cycles:   19124778 heartbeat IPC: 2.49609 cumulative IPC: 2.50983 (Simulation time: 0 hr 5 min 5 sec) 
Heartbeat CPU  3 instructions:   49000000 cycles:   19263562 heartbeat IPC: 2.54592 cumulative IPC: 2.54366 (Simulation time: 0 hr 5 min 7 sec) 
Heartbeat CPU  0 instructions:   42000000 cycles:   19263647 heartbeat IPC: 2.15397 cumulative IPC: 2.18027 (Simulation time: 0 hr 5 min 7 sec) 
Heartbeat CPU  2 instructions:   43000003 cycles:   19348166 heartbeat IPC: 2.13531 cumulative IPC: 2.22243 (Simulation time: 0 hr 5 min 8 sec) 
Heartbeat CPU  1 instructions:   49000002 cycles:   19531117 heartbeat IPC: 2.46100 cumulative IPC: 2.50882 (Simulation time: 0 hr 5 min 11 sec) 
Heartbeat CPU  3 instructions:   50000001 cycles:   19655372 heartbeat IPC: 2.55226 cumulative IPC: 2.54383 (Simulation time: 0 hr 5 min 13 sec) 
Heartbeat CPU  0 instructions:   43000003 cycles:   19713954 heartbeat IPC: 2.22071 cumulative IPC: 2.18120 (Simulation time: 0 hr 5 min 14 sec) 
Heartbeat CPU  2 instructions:   44000000 cycles:   19776303 heartbeat IPC: 2.33569 cumulative IPC: 2.22488 (Simulation time: 0 hr 5 min 15 sec) 
Heartbeat CPU  1 instructions:   50000003 cycles:   19940718 heartbeat IPC: 2.44140 cumulative IPC: 2.50743 (Simulation time: 0 hr 5 min 18 sec) 
Heartbeat CPU  3 instructions:   51000002 cycles:   20049271 heartbeat IPC: 2.53872 cumulative IPC: 0.04988 (Simulation time: 0 hr 5 min 19 sec) 
Heartbeat CPU  0 instructions:   44000000 cycles:   20149398 heartbeat IPC: 2.29650 cumulative IPC: 2.18369 (Simulation time: 0 hr 5 min 21 sec) 
Heartbeat CPU  2 instructions:   45000002 cycles:   20215699 heartbeat IPC: 2.27586 cumulative IPC: 2.22599 (Simulation time: 0 hr 5 min 22 sec) 
Heartbeat CPU  1 instructions:   51000002 cycles:   20353656 heartbeat IPC: 2.42167 cumulative IPC: 0.04913 (Simulation time: 0 hr 5 min 24 sec) 
Heartbeat CPU  3 instructions:   52000000 cycles:   20458996 heartbeat IPC: 2.44066 cumulative IPC: 0.09776 (Simulation time: 0 hr 5 min 26 sec) 
Heartbeat CPU  0 instructions:   45000000 cycles:   20594291 heartbeat IPC: 2.24773 cumulative IPC: 2.18507 (Simulation time: 0 hr 5 min 28 sec) 
Heartbeat CPU  2 instructions:   46000001 cycles:   20669892 heartbeat IPC: 2.20170 cumulative IPC: 2.22546 (Simulation time: 0 hr 5 min 29 sec) 
Heartbeat CPU  1 instructions:   52000000 cycles:   20771649 heartbeat IPC: 2.39238 cumulative IPC: 0.09629 (Simulation time: 0 hr 5 min 31 sec) 
Heartbeat CPU  3 instructions:   53000002 cycles:   20853408 heartbeat IPC: 2.53542 cumulative IPC: 0.14386 (Simulation time: 0 hr 5 min 32 sec) 
Heartbeat CPU  0 instructions:   46000003 cycles:   21057482 heartbeat IPC: 2.15894 cumulative IPC: 2.18450 (Simulation time: 0 hr 5 min 35 sec) 
Heartbeat CPU  2 instructions:   47000002 cycles:   21101879 heartbeat IPC: 2.31489 cumulative IPC: 2.22729 (Simulation time: 0 hr 5 min 36 sec) 
Heartbeat CPU  1 instructions:   53000003 cycles:   21179579 heartbeat IPC: 2.45141 cumulative IPC: 0.14165 (Simulation time: 0 hr 5 min 37 sec) 
Heartbeat CPU  3 instructions:   54000001 cycles:   21245326 heartbeat IPC: 2.55155 cumulative IPC: 0.18828 (Simulation time: 0 hr 5 min 38 sec) 
Heartbeat CPU  0 instructions:   47000000 cycles:   21500248 heartbeat IPC: 2.25852 cumulative IPC: 2.18602 (Simulation time: 0 hr 5 min 42 sec) 
Heartbeat CPU  2 instructions:   48000000 cycles:   21526518 heartbeat IPC: 2.35494 cumulative IPC: 2.22981 (Simulation time: 0 hr 5 min 43 sec) 
Heartbeat CPU  1 instructions:   54000000 cycles:   21592594 heartbeat IPC: 2.42121 cumulative IPC: 0.18525 (Simulation time: 0 hr 5 min 44 sec) 
Heartbeat CPU  3 instructions:   55000001 cycles:   21638718 heartbeat IPC: 2.54199 cumulative IPC: 0.23107 (Simulation time: 0 hr 5 min 44 sec) 
Heartbeat CPU  0 instructions:   48000000 cycles:   21995456 heartbeat IPC: 2.01935 cumulative IPC: 2.18227 (Simulation time: 0 hr 5 min 50 sec) 
Heartbeat CPU  1 instructions:   55000000 cycles:   22003198 heartbeat IPC: 2.43544 cumulative IPC: 0.22724 (Simulation time: 0 hr 5 min 50 sec) 
Heartbeat CPU  2 instructions:   49000001 cycles:   22018792 heartbeat IPC: 2.03139 cumulative IPC: 2.22537 (Simulation time: 0 hr 5 min 50 sec) 
Heartbeat CPU  3 instructions:   56000000 cycles:   22031780 heartbeat IPC: 2.54413 cumulative IPC: 0.27233 (Simulation time: 0 hr 5 min 51 sec) 
Heartbeat CPU  1 instructions:   56000000 cycles:   22420897 heartbeat IPC: 2.39407 cumulative IPC: 0.26761 (Simulation time: 0 hr 5 min 57 sec) 
Heartbeat CPU  3 instructions:   57000003 cycles:   22427165 heartbeat IPC: 2.52919 cumulative IPC: 0.31212 (Simulation time: 0 hr 5 min 57 sec) 
Heartbeat CPU  0 instructions:   49000000 cycles:   22428203 heartbeat IPC: 2.31082 cumulative IPC: 2.18475 (Simulation time: 0 hr 5 min 57 sec) 
Heartbeat CPU  2 instructions:   50000000 cycles:   22435679 heartbeat IPC: 2.39873 cumulative IPC: 2.22859 (Simulation time: 0 hr 5 min 57 sec) 
Heartbeat CPU  3 instructions:   58000000 cycles:   22820733 heartbeat IPC: 2.54085 cumulative IPC: 0.35056 (Simulation time: 0 hr 6 min 3 sec) 
Heartbeat CPU  0 instructions:   50000002 cycles:   22859742 heartbeat IPC: 2.31729 cumulative IPC: 2.18725 (Simulation time: 0 hr 6 min 4 sec) 

Warmup complete CPU  0 instructions:   50000002 cycles:   22859742 (Simulation time: 0 hr 6 min 4 sec) 
Warmup complete CPU  1 instructions:   56873970 cycles:   22859742 (Simulation time: 0 hr 6 min 4 sec) 
Warmup complete CPU  2 instructions:   50996448 cycles:   22859742 (Simulation time: 0 hr 6 min 4 sec) 
Warmup complete CPU  3 instructions:   58098208 cycles:   22859741 (Simulation time: 0 hr 6 min 4 sec) 

Heartbeat CPU  2 instructions:   51000000 cycles:   22892660 heartbeat IPC: 2.18827 cumulative IPC: 0.10790 (Simulation time: 0 hr 6 min 4 sec) 
Heartbeat CPU  1 instructions:   57000000 cycles:   23187462 heartbeat IPC: 1.30452 cumulative IPC: 0.38457 (Simulation time: 0 hr 6 min 5 sec) 
Heartbeat CPU  1 instructions:   58000000 cycles:   25834736 heartbeat IPC: 0.37775 cumulative IPC: 0.37850 (Simulation time: 0 hr 6 min 10 sec) 
Heartbeat CPU  3 instructions:   59000001 cycles:   28747856 heartbeat IPC: 0.16872 cumulative IPC: 0.15315 (Simulation time: 0 hr 6 min 15 sec) 
Heartbeat CPU  1 instructions:   59000000 cycles:   29478161 heartbeat IPC: 0.27447 cumulative IPC: 0.32123 (Simulation time: 0 hr 6 min 16 sec) 
Heartbeat CPU  2 instructions:   52000000 cycles:   31105575 heartbeat IPC: 0.12176 cumulative IPC: 0.12170 (Simulation time: 0 hr 6 min 19 sec) 
Heartbeat CPU  0 instructions:   51000000 cycles:   31317038 heartbeat IPC: 0.11824 cumulative IPC: 0.11824 (Simulation time: 0 hr 6 min 19 sec) 
Heartbeat CPU  1 instructions:   60000000 cycles:   33151578 heartbeat IPC: 0.27223 cumulative IPC: 0.30374 (Simulation time: 0 hr 6 min 22 sec) 
Heartbeat CPU  3 instructions:   60000000 cycles:   35300554 heartbeat IPC: 0.15261 cumulative IPC: 0.15287 (Simulation time: 0 hr 6 min 26 sec) 
Heartbeat CPU  1 instructions:   61000001 cycles:   37064320 heartbeat IPC: 0.25558 cumulative IPC: 0.29047 (Simulation time: 0 hr 6 min 29 sec) 
Heartbeat CPU  2 instructions:   53000003 cycles:   39538710 heartbeat IPC: 0.11858 cumulative IPC: 0.12012 (Simulation time: 0 hr 6 min 33 sec) 
Heartbeat CPU  0 instructions:   52000000 cycles:   39752133 heartbeat IPC: 0.11855 cumulative IPC: 0.11840 (Simulation time: 0 hr 6 min 33 sec) 
Heartbeat CPU  1 instructions:   62000002 cycles:   40855580 heartbeat IPC: 0.26376 cumulative IPC: 0.28485 (Simulation time: 0 hr 6 min 35 sec) 
Heartbeat CPU  3 instructions:   61000002 cycles:   41870892 heartbeat IPC: 0.15220 cumulative IPC: 0.15264 (Simulation time: 0 hr 6 min 37 sec) 
Heartbeat CPU  1 instructions:   63000000 cycles:   44604916 heartbeat IPC: 0.26671 cumulative IPC: 0.28172 (Simulation time: 0 hr 6 min 41 sec) 
Heartbeat CPU  2 instructions:   54000001 cycles:   47758918 heartbeat IPC: 0.12165 cumulative IPC: 0.12063 (Simulation time: 0 hr 6 min 47 sec) 
Heartbeat CPU  1 instructions:   64000000 cycles:   48388070 heartbeat IPC: 0.26433 cumulative IPC: 0.27914 (Simulation time: 0 hr 6 min 48 sec) 
Heartbeat CPU  3 instructions:   62000001 cycles:   48437467 heartbeat IPC: 0.15229 cumulative IPC: 0.15255 (Simulation time: 0 hr 6 min 48 sec) 
Heartbeat CPU  0 instructions:   53000000 cycles:   48477466 heartbeat IPC: 0.11461 cumulative IPC: 0.11711 (Simulation time: 0 hr 6 min 48 sec) 
Heartbeat CPU  1 instructions:   65000002 cycles:   53651698 heartbeat IPC: 0.18998 cumulative IPC: 0.26390 (Simulation time: 0 hr 6 min 56 sec) 
Heartbeat CPU  3 instructions:   63000003 cycles:   55009065 heartbeat IPC: 0.15217 cumulative IPC: 0.15247 (Simulation time: 0 hr 6 min 58 sec) 
Heartbeat CPU  2 instructions:   55000003 cycles:   55988383 heartbeat IPC: 0.12151 cumulative IPC: 0.12085 (Simulation time: 0 hr 7 min 0 sec) 
Heartbeat CPU  0 instructions:   54000001 cycles:   56940145 heartbeat IPC: 0.11817 cumulative IPC: 0.11737 (Simulation time: 0 hr 7 min 1 sec) 
Heartbeat CPU  1 instructions:   66000002 cycles:   58808406 heartbeat IPC: 0.19392 cumulative IPC: 0.25386 (Simulation time: 0 hr 7 min 4 sec) 
Heartbeat CPU  3 instructions:   64000000 cycles:   61592100 heartbeat IPC: 0.15191 cumulative IPC: 0.15237 (Simulation time: 0 hr 7 min 8 sec) 
Heartbeat CPU  2 instructions:   56000000 cycles:   64202263 heartbeat IPC: 0.12174 cumulative IPC: 0.12103 (Simulation time: 0 hr 7 min 12 sec) 
Heartbeat CPU  0 instructions:   55000001 cycles:   65487929 heartbeat IPC: 0.11699 cumulative IPC: 0.11729 (Simulation time: 0 hr 7 min 14 sec) 
Heartbeat CPU  1 instructions:   67000003 cycles:   66872903 heartbeat IPC: 0.12400 cumulative IPC: 0.23007 (Simulation time: 0 hr 7 min 16 sec) 
Heartbeat CPU  3 instructions:   65000000 cycles:   68074209 heartbeat IPC: 0.15427 cumulative IPC: 0.15265 (Simulation time: 0 hr 7 min 18 sec) 
Heartbeat CPU  2 instructions:   57000000 cycles:   68880258 heartbeat IPC: 0.21377 cumulative IPC: 0.13045 (Simulation time: 0 hr 7 min 19 sec) 
Heartbeat CPU  0 instructions:   56000000 cycles:   73006889 heartbeat IPC: 0.13300 cumulative IPC: 0.11965 (Simulation time: 0 hr 7 min 26 sec) 
Heartbeat CPU  2 instructions:   58000001 cycles:   74120766 heartbeat IPC: 0.19082 cumulative IPC: 0.13663 (Simulation time: 0 hr 7 min 28 sec) 
Heartbeat CPU  3 instructions:   66000002 cycles:   74501160 heartbeat IPC: 0.15560 cumulative IPC: 0.15301 (Simulation time: 0 hr 7 min 29 sec) 
Heartbeat CPU  1 instructions:   68000000 cycles:   76537464 heartbeat IPC: 0.10347 cumulative IPC: 0.20727 (Simulation time: 0 hr 7 min 32 sec) 
Heartbeat CPU  0 instructions:   57000001 cycles:   77718434 heartbeat IPC: 0.21224 cumulative IPC: 0.12760 (Simulation time: 0 hr 7 min 34 sec) 
Heartbeat CPU  3 instructions:   67000000 cycles:   80921472 heartbeat IPC: 0.15576 cumulative IPC: 0.15332 (Simulation time: 0 hr 7 min 39 sec) 
Heartbeat CPU  2 instructions:   59000001 cycles:   82106687 heartbeat IPC: 0.12522 cumulative IPC: 0.13509 (Simulation time: 0 hr 7 min 40 sec) 
Heartbeat CPU  1 instructions:   69000000 cycles:   83807185 heartbeat IPC: 0.13756 cumulative IPC: 0.19896 (Simulation time: 0 hr 7 min 43 sec) 
Heartbeat CPU  0 instructions:   58000003 cycles:   83964594 heartbeat IPC: 0.16010 cumulative IPC: 0.13092 (Simulation time: 0 hr 7 min 43 sec) 
Heartbeat CPU  3 instructions:   68000000 cycles:   87326800 heartbeat IPC: 0.15612 cumulative IPC: 0.15359 (Simulation time: 0 hr 7 min 48 sec) 
Heartbeat CPU  1 instructions:   70000002 cycles:   89305466 heartbeat IPC: 0.18188 cumulative IPC: 0.19755 (Simulation time: 0 hr 7 min 51 sec) 
Heartbeat CPU  2 instructions:   60000000 cycles:   90214611 heartbeat IPC: 0.12334 cumulative IPC: 0.13367 (Simulation time: 0 hr 7 min 52 sec) 
Heartbeat CPU  0 instructions:   59000003 cycles:   92298578 heartbeat IPC: 0.11999 cumulative IPC: 0.12961 (Simulation time: 0 hr 7 min 56 sec) 
Heartbeat CPU  1 instructions:   71000002 cycles:   92305206 heartbeat IPC: 0.33336 cumulative IPC: 0.20341 (Simulation time: 0 hr 7 min 56 sec) 
Heartbeat CPU  3 instructions:   69000001 cycles:   93742926 heartbeat IPC: 0.15586 cumulative IPC: 0.15380 (Simulation time: 0 hr 7 min 58 sec) 
Heartbeat CPU  1 instructions:   72000000 cycles:   96720724 heartbeat IPC: 0.22647 cumulative IPC: 0.20479 (Simulation time: 0 hr 8 min 3 sec) 
Heartbeat CPU  2 instructions:   61000001 cycles:   98329399 heartbeat IPC: 0.12323 cumulative IPC: 0.13255 (Simulation time: 0 hr 8 min 5 sec) 
Heartbeat CPU  3 instructions:   70000000 cycles:  100157097 heartbeat IPC: 0.15590 cumulative IPC: 0.15397 (Simulation time: 0 hr 8 min 9 sec) 
Heartbeat CPU  1 instructions:   73000001 cycles:  100308584 heartbeat IPC: 0.27872 cumulative IPC: 0.20822 (Simulation time: 0 hr 8 min 9 sec) 
Heartbeat CPU  0 instructions:   60000000 cycles:  100679980 heartbeat IPC: 0.11931 cumulative IPC: 0.12850 (Simulation time: 0 hr 8 min 9 sec) 
Heartbeat CPU  1 instructions:   74000001 cycles:  103522313 heartbeat IPC: 0.31117 cumulative IPC: 0.21232 (Simulation time: 0 hr 8 min 14 sec) 
Heartbeat CPU  2 instructions:   62000002 cycles:  106515388 heartbeat IPC: 0.12216 cumulative IPC: 0.13153 (Simulation time: 0 hr 8 min 19 sec) 
Heartbeat CPU  3 instructions:   71000000 cycles:  106589148 heartbeat IPC: 0.15547 cumulative IPC: 0.15409 (Simulation time: 0 hr 8 min 20 sec) 
Heartbeat CPU  1 instructions:   75000001 cycles:  106990195 heartbeat IPC: 0.28836 cumulative IPC: 0.21545 (Simulation time: 0 hr 8 min 20 sec) 
Heartbeat CPU  0 instructions:   61000000 cycles:  109015819 heartbeat IPC: 0.11996 cumulative IPC: 0.12768 (Simulation time: 0 hr 8 min 23 sec) 
Heartbeat CPU  1 instructions:   76000000 cycles:  111321611 heartbeat IPC: 0.23087 cumulative IPC: 0.21621 (Simulation time: 0 hr 8 min 27 sec) 
Heartbeat CPU  3 instructions:   72000000 cycles:  113036504 heartbeat IPC: 0.15510 cumulative IPC: 0.15416 (Simulation time: 0 hr 8 min 30 sec) 
Heartbeat CPU  2 instructions:   63000000 cycles:  114737987 heartbeat IPC: 0.12162 cumulative IPC: 0.13065 (Simulation time: 0 hr 8 min 33 sec) 
Heartbeat CPU  1 instructions:   77000002 cycles:  115564559 heartbeat IPC: 0.23569 cumulative IPC: 0.21710 (Simulation time: 0 hr 8 min 34 sec) 
Heartbeat CPU  0 instructions:   62000001 cycles:  117428921 heartbeat IPC: 0.11886 cumulative IPC: 0.12689 (Simulation time: 0 hr 8 min 36 sec) 
Heartbeat CPU  3 instructions:   73000001 cycles:  119428383 heartbeat IPC: 0.15645 cumulative IPC: 0.15431 (Simulation time: 0 hr 8 min 39 sec) 
Heartbeat CPU  1 instructions:   78000000 cycles:  122469876 heartbeat IPC: 0.14482 cumulative IPC: 0.21209 (Simulation time: 0 hr 8 min 43 sec) 
Heartbeat CPU  2 instructions:   64000000 cycles:  122911649 heartbeat IPC: 0.12234 cumulative IPC: 0.12997 (Simulation time: 0 hr 8 min 44 sec) 
Heartbeat CPU  0 instructions:   63000000 cycles:  125768642 heartbeat IPC: 0.11991 cumulative IPC: 0.12633 (Simulation time: 0 hr 8 min 48 sec) 
Heartbeat CPU  3 instructions:   74000001 cycles:  125873307 heartbeat IPC: 0.15516 cumulative IPC: 0.15437 (Simulation time: 0 hr 8 min 48 sec) 
Heartbeat CPU  1 instructions:   79000001 cycles:  129529078 heartbeat IPC: 0.14166 cumulative IPC: 0.20743 (Simulation time: 0 hr 8 min 53 sec) 
Heartbeat CPU  2 instructions:   65000001 cycles:  131042776 heartbeat IPC: 0.12298 cumulative IPC: 0.12944 (Simulation time: 0 hr 8 min 55 sec) 
Heartbeat CPU  3 instructions:   75000000 cycles:  132287663 heartbeat IPC: 0.15590 cumulative IPC: 0.15446 (Simulation time: 0 hr 8 min 57 sec) 
Heartbeat CPU  0 instructions:   64000000 cycles:  134197382 heartbeat IPC: 0.11864 cumulative IPC: 0.12574 (Simulation time: 0 hr 8 min 59 sec) 
Heartbeat CPU  1 instructions:   80000000 cycles:  136561380 heartbeat IPC: 0.14220 cumulative IPC: 0.20339 (Simulation time: 0 hr 9 min 3 sec) 
Heartbeat CPU  3 instructions:   76000000 cycles:  138727772 heartbeat IPC: 0.15528 cumulative IPC: 0.15450 (Simulation time: 0 hr 9 min 6 sec) 
Heartbeat CPU  2 instructions:   66000002 cycles:  139215901 heartbeat IPC: 0.12235 cumulative IPC: 0.12895 (Simulation time: 0 hr 9 min 6 sec) 
Heartbeat CPU  0 instructions:   65000003 cycles:  142617020 heartbeat IPC: 0.11877 cumulative IPC: 0.12525 (Simulation time: 0 hr 9 min 11 sec) 
Heartbeat CPU  1 instructions:   81000000 cycles:  143547928 heartbeat IPC: 0.14313 cumulative IPC: 0.19990 (Simulation time: 0 hr 9 min 13 sec) 
Heartbeat CPU  3 instructions:   77000003 cycles:  145151495 heartbeat IPC: 0.15567 cumulative IPC: 0.15456 (Simulation time: 0 hr 9 min 15 sec) 
Heartbeat CPU  2 instructions:   67000002 cycles:  147430454 heartbeat IPC: 0.12174 cumulative IPC: 0.12847 (Simulation time: 0 hr 9 min 18 sec) 
Heartbeat CPU  1 instructions:   82000001 cycles:  150485113 heartbeat IPC: 0.14415 cumulative IPC: 0.19687 (Simulation time: 0 hr 9 min 22 sec) 
Heartbeat CPU  0 instructions:   66000001 cycles:  151065116 heartbeat IPC: 0.11837 cumulative IPC: 0.12480 (Simulation time: 0 hr 9 min 23 sec) 
Heartbeat CPU  3 instructions:   78000002 cycles:  151546914 heartbeat IPC: 0.15636 cumulative IPC: 0.15465 (Simulation time: 0 hr 9 min 24 sec) 
Heartbeat CPU  2 instructions:   68000000 cycles:  155856346 heartbeat IPC: 0.11868 cumulative IPC: 0.12785 (Simulation time: 0 hr 9 min 30 sec) 
Heartbeat CPU  1 instructions:   83000002 cycles:  157421600 heartbeat IPC: 0.14417 cumulative IPC: 0.19416 (Simulation time: 0 hr 9 min 32 sec) 
Heartbeat CPU  3 instructions:   79000003 cycles:  157845767 heartbeat IPC: 0.15876 cumulative IPC: 0.15484 (Simulation time: 0 hr 9 min 33 sec) 
Heartbeat CPU  0 instructions:   67000001 cycles:  159507446 heartbeat IPC: 0.11845 cumulative IPC: 0.12441 (Simulation time: 0 hr 9 min 35 sec) 
Heartbeat CPU  2 instructions:   69000000 cycles:  164057051 heartbeat IPC: 0.12194 cumulative IPC: 0.12751 (Simulation time: 0 hr 9 min 41 sec) 
Heartbeat CPU  3 instructions:   80000000 cycles:  164277476 heartbeat IPC: 0.15548 cumulative IPC: 0.15487 (Simulation time: 0 hr 9 min 42 sec) 
Heartbeat CPU  1 instructions:   84000000 cycles:  164374575 heartbeat IPC: 0.14382 cumulative IPC: 0.19168 (Simulation time: 0 hr 9 min 42 sec) 
Heartbeat CPU  0 instructions:   68000000 cycles:  168200787 heartbeat IPC: 0.11503 cumulative IPC: 0.12385 (Simulation time: 0 hr 9 min 47 sec) 
Heartbeat CPU  3 instructions:   81000000 cycles:  170690597 heartbeat IPC: 0.15593 cumulative IPC: 0.15492 (Simulation time: 0 hr 9 min 51 sec) 
Heartbeat CPU  1 instructions:   85000001 cycles:  171326475 heartbeat IPC: 0.14385 cumulative IPC: 0.18944 (Simulation time: 0 hr 9 min 52 sec) 
Heartbeat CPU  2 instructions:   70000003 cycles:  172305909 heartbeat IPC: 0.12123 cumulative IPC: 0.12716 (Simulation time: 0 hr 9 min 53 sec) 
Heartbeat CPU  0 instructions:   69000002 cycles:  176676166 heartbeat IPC: 0.11799 cumulative IPC: 0.12352 (Simulation time: 0 hr 9 min 59 sec) 
Heartbeat CPU  3 instructions:   82000001 cycles:  177098963 heartbeat IPC: 0.15605 cumulative IPC: 0.15497 (Simulation time: 0 hr 10 min 0 sec) 
Heartbeat CPU  1 instructions:   86000000 cycles:  178290372 heartbeat IPC: 0.14360 cumulative IPC: 0.18739 (Simulation time: 0 hr 10 min 1 sec) 
Heartbeat CPU  2 instructions:   71000001 cycles:  179418327 heartbeat IPC: 0.14060 cumulative IPC: 0.12777 (Simulation time: 0 hr 10 min 3 sec) 
Heartbeat CPU  3 instructions:   83000003 cycles:  183492310 heartbeat IPC: 0.15641 cumulative IPC: 0.15502 (Simulation time: 0 hr 10 min 10 sec) 
Heartbeat CPU  2 instructions:   72000000 cycles:  183909058 heartbeat IPC: 0.22268 cumulative IPC: 0.13042 (Simulation time: 0 hr 10 min 11 sec) 
Heartbeat CPU  0 instructions:   70000000 cycles:  185205148 heartbeat IPC: 0.11725 cumulative IPC: 0.12319 (Simulation time: 0 hr 10 min 13 sec) 
Heartbeat CPU  1 instructions:   87000001 cycles:  185307316 heartbeat IPC: 0.14251 cumulative IPC: 0.18545 (Simulation time: 0 hr 10 min 13 sec) 
Heartbeat CPU  2 instructions:   73000001 cycles:  189869565 heartbeat IPC: 0.16777 cumulative IPC: 0.13175 (Simulation time: 0 hr 10 min 20 sec) 
Heartbeat CPU  3 instructions:   84000000 cycles:  189926989 heartbeat IPC: 0.15541 cumulative IPC: 0.15504 (Simulation time: 0 hr 10 min 20 sec) 
Heartbeat CPU  0 instructions:   71000002 cycles:  191347661 heartbeat IPC: 0.16280 cumulative IPC: 0.12464 (Simulation time: 0 hr 10 min 22 sec) 
Heartbeat CPU  1 instructions:   88000000 cycles:  192322069 heartbeat IPC: 0.14256 cumulative IPC: 0.18368 (Simulation time: 0 hr 10 min 24 sec) 
Heartbeat CPU  0 instructions:   72000000 cycles:  196091169 heartbeat IPC: 0.21081 cumulative IPC: 0.12700 (Simulation time: 0 hr 10 min 30 sec) 
Heartbeat CPU  3 instructions:   85000003 cycles:  196337903 heartbeat IPC: 0.15598 cumulative IPC: 0.15507 (Simulation time: 0 hr 10 min 30 sec) 
Heartbeat CPU  2 instructions:   74000000 cycles:  197961358 heartbeat IPC: 0.12358 cumulative IPC: 0.13137 (Simulation time: 0 hr 10 min 33 sec) 
Heartbeat CPU  1 instructions:   89000003 cycles:  199360260 heartbeat IPC: 0.14208 cumulative IPC: 0.18202 (Simulation time: 0 hr 10 min 35 sec) 
Heartbeat CPU  3 instructions:   86000003 cycles:  202775224 heartbeat IPC: 0.15534 cumulative IPC: 0.15508 (Simulation time: 0 hr 10 min 39 sec) 
Heartbeat CPU  0 instructions:   73000000 cycles:  203364198 heartbeat IPC: 0.13749 cumulative IPC: 0.12742 (Simulation time: 0 hr 10 min 40 sec) 
Heartbeat CPU  2 instructions:   75000003 cycles:  206091564 heartbeat IPC: 0.12300 cumulative IPC: 0.13100 (Simulation time: 0 hr 10 min 44 sec) 
Heartbeat CPU  1 instructions:   90000000 cycles:  206372597 heartbeat IPC: 0.14261 cumulative IPC: 0.18051 (Simulation time: 0 hr 10 min 44 sec) 
Heartbeat CPU  3 instructions:   87000003 cycles:  209230719 heartbeat IPC: 0.15491 cumulative IPC: 0.15508 (Simulation time: 0 hr 10 min 48 sec) 
Heartbeat CPU  0 instructions:   74000002 cycles:  211701237 heartbeat IPC: 0.11995 cumulative IPC: 0.12709 (Simulation time: 0 hr 10 min 52 sec) 
Heartbeat CPU  1 instructions:   91000002 cycles:  213379050 heartbeat IPC: 0.14273 cumulative IPC: 0.17912 (Simulation time: 0 hr 10 min 54 sec) 
Heartbeat CPU  2 instructions:   76000000 cycles:  214167817 heartbeat IPC: 0.12382 cumulative IPC: 0.13070 (Simulation time: 0 hr 10 min 55 sec) 
Heartbeat CPU  3 instructions:   88000000 cycles:  215670410 heartbeat IPC: 0.15529 cumulative IPC: 0.15508 (Simulation time: 0 hr 10 min 57 sec) 
Heartbeat CPU  0 instructions:   75000003 cycles:  220050308 heartbeat IPC: 0.11977 cumulative IPC: 0.12678 (Simulation time: 0 hr 11 min 3 sec) 
Heartbeat CPU  1 instructions:   92000000 cycles:  220380775 heartbeat IPC: 0.14282 cumulative IPC: 0.17783 (Simulation time: 0 hr 11 min 4 sec) 
Heartbeat CPU  3 instructions:   89000001 cycles:  222111827 heartbeat IPC: 0.15525 cumulative IPC: 0.15509 (Simulation time: 0 hr 11 min 6 sec) 
Heartbeat CPU  2 instructions:   77000001 cycles:  222341475 heartbeat IPC: 0.12234 cumulative IPC: 0.13036 (Simulation time: 0 hr 11 min 7 sec) 
Heartbeat CPU  1 instructions:   93000000 cycles:  227302279 heartbeat IPC: 0.14448 cumulative IPC: 0.17671 (Simulation time: 0 hr 11 min 13 sec) 
Heartbeat CPU  0 instructions:   76000000 cycles:  228426232 heartbeat IPC: 0.11939 cumulative IPC: 0.12648 (Simulation time: 0 hr 11 min 15 sec) 
Heartbeat CPU  3 instructions:   90000001 cycles:  228574216 heartbeat IPC: 0.15474 cumulative IPC: 0.15508 (Simulation time: 0 hr 11 min 15 sec) 
Heartbeat CPU  2 instructions:   78000002 cycles:  230527526 heartbeat IPC: 0.12216 cumulative IPC: 0.13003 (Simulation time: 0 hr 11 min 18 sec) 
Heartbeat CPU  1 instructions:   94000002 cycles:  234247606 heartbeat IPC: 0.14398 cumulative IPC: 0.17563 (Simulation time: 0 hr 11 min 24 sec) 
Heartbeat CPU  3 instructions:   91000003 cycles:  234560939 heartbeat IPC: 0.16704 cumulative IPC: 0.15542 (Simulation time: 0 hr 11 min 24 sec) 
Heartbeat CPU  0 instructions:   77000000 cycles:  236850562 heartbeat IPC: 0.11870 cumulative IPC: 0.12617 (Simulation time: 0 hr 11 min 28 sec) 
Heartbeat CPU  2 instructions:   79000000 cycles:  238691877 heartbeat IPC: 0.12248 cumulative IPC: 0.12975 (Simulation time: 0 hr 11 min 31 sec) 
Heartbeat CPU  3 instructions:   92000000 cycles:  239578937 heartbeat IPC: 0.19928 cumulative IPC: 0.15643 (Simulation time: 0 hr 11 min 32 sec) 
Heartbeat CPU  1 instructions:   95000002 cycles:  241207075 heartbeat IPC: 0.14369 cumulative IPC: 0.17461 (Simulation time: 0 hr 11 min 35 sec) 
Heartbeat CPU  0 instructions:   78000001 cycles:  245191496 heartbeat IPC: 0.11989 cumulative IPC: 0.12594 (Simulation time: 0 hr 11 min 40 sec) 
Heartbeat CPU  3 instructions:   93000000 cycles:  245866569 heartbeat IPC: 0.15904 cumulative IPC: 0.15651 (Simulation time: 0 hr 11 min 41 sec) 
Heartbeat CPU  2 instructions:   80000000 cycles:  246831776 heartbeat IPC: 0.12285 cumulative IPC: 0.12950 (Simulation time: 0 hr 11 min 42 sec) 
Heartbeat CPU  1 instructions:   96000000 cycles:  248148728 heartbeat IPC: 0.14406 cumulative IPC: 0.17367 (Simulation time: 0 hr 11 min 44 sec) 
Heartbeat CPU  3 instructions:   94000000 cycles:  252737218 heartbeat IPC: 0.14555 cumulative IPC: 0.15618 (Simulation time: 0 hr 11 min 51 sec) 
Heartbeat CPU  0 instructions:   79000002 cycles:  253625865 heartbeat IPC: 0.11856 cumulative IPC: 0.12567 (Simulation time: 0 hr 11 min 52 sec) 
Heartbeat CPU  2 instructions:   81000003 cycles:  255017369 heartbeat IPC: 0.12217 cumulative IPC: 0.12924 (Simulation time: 0 hr 11 min 54 sec) 
Heartbeat CPU  1 instructions:   97000001 cycles:  255121657 heartbeat IPC: 0.14341 cumulative IPC: 0.17276 (Simulation time: 0 hr 11 min 54 sec) 
Heartbeat CPU  3 instructions:   95000001 cycles:  259664348 heartbeat IPC: 0.14436 cumulative IPC: 0.15583 (Simulation time: 0 hr 12 min 0 sec) 
Heartbeat CPU  0 instructions:   80000000 cycles:  262062885 heartbeat IPC: 0.11853 cumulative IPC: 0.12542 (Simulation time: 0 hr 12 min 3 sec) 
Heartbeat CPU  1 instructions:   98000002 cycles:  262095638 heartbeat IPC: 0.14339 cumulative IPC: 0.17191 (Simulation time: 0 hr 12 min 3 sec) 
Heartbeat CPU  2 instructions:   82000002 cycles:  263214482 heartbeat IPC: 0.12199 cumulative IPC: 0.12899 (Simulation time: 0 hr 12 min 5 sec) 
Heartbeat CPU  3 instructions:   96000000 cycles:  266602502 heartbeat IPC: 0.14413 cumulative IPC: 0.15550 (Simulation time: 0 hr 12 min 10 sec) 
Heartbeat CPU  1 instructions:   99000000 cycles:  269054058 heartbeat IPC: 0.14371 cumulative IPC: 0.17111 (Simulation time: 0 hr 12 min 13 sec) 
Heartbeat CPU  0 instructions:   81000000 cycles:  270483991 heartbeat IPC: 0.11875 cumulative IPC: 0.12519 (Simulation time: 0 hr 12 min 15 sec) 
Heartbeat CPU  2 instructions:   83000001 cycles:  271650924 heartbeat IPC: 0.11853 cumulative IPC: 0.12864 (Simulation time: 0 hr 12 min 17 sec) 
Heartbeat CPU  3 instructions:   97000001 cycles:  273553816 heartbeat IPC: 0.14386 cumulative IPC: 0.15518 (Simulation time: 0 hr 12 min 19 sec) 
*** Reached end of trace for Core: 1 Repeating trace: /data3/CLOUD9/traces/cloud9_phase2_core1.trace.xz
Heartbeat CPU  1 instructions:  100000000 cycles:  276067197 heartbeat IPC: 0.14259 cumulative IPC: 0.17032 (Simulation time: 0 hr 12 min 23 sec) 
Heartbeat CPU  0 instructions:   82000001 cycles:  279162449 heartbeat IPC: 0.11523 cumulative IPC: 0.12485 (Simulation time: 0 hr 12 min 27 sec) 
Heartbeat CPU  2 instructions:   84000000 cycles:  279897802 heartbeat IPC: 0.12126 cumulative IPC: 0.12840 (Simulation time: 0 hr 12 min 28 sec) 
Heartbeat CPU  3 instructions:   98000002 cycles:  280505174 heartbeat IPC: 0.14386 cumulative IPC: 0.15487 (Simulation time: 0 hr 12 min 29 sec) 
Heartbeat CPU  1 instructions:  101000002 cycles:  283187135 heartbeat IPC: 0.14045 cumulative IPC: 0.16950 (Simulation time: 0 hr 12 min 32 sec) 
Heartbeat CPU  3 instructions:   99000002 cycles:  287446857 heartbeat IPC: 0.14406 cumulative IPC: 0.15459 (Simulation time: 0 hr 12 min 38 sec) 
Heartbeat CPU  0 instructions:   83000001 cycles:  287597148 heartbeat IPC: 0.11856 cumulative IPC: 0.12465 (Simulation time: 0 hr 12 min 38 sec) 
Heartbeat CPU  2 instructions:   85000002 cycles:  288175041 heartbeat IPC: 0.12081 cumulative IPC: 0.12816 (Simulation time: 0 hr 12 min 39 sec) 
Heartbeat CPU  1 instructions:  102000003 cycles:  290243357 heartbeat IPC: 0.14172 cumulative IPC: 0.16877 (Simulation time: 0 hr 12 min 42 sec) 
Heartbeat CPU  2 instructions:   86000003 cycles:  294157247 heartbeat IPC: 0.16716 cumulative IPC: 0.12902 (Simulation time: 0 hr 12 min 48 sec) 
*** Reached end of trace for Core: 3 Repeating trace: /data3/CLOUD9/traces/cloud9_phase2_core3.trace.xz
Heartbeat CPU  3 instructions:  100000000 cycles:  294394854 heartbeat IPC: 0.14393 cumulative IPC: 0.15431 (Simulation time: 0 hr 12 min 49 sec) 
Heartbeat CPU  0 instructions:   84000000 cycles:  296080648 heartbeat IPC: 0.11788 cumulative IPC: 0.12444 (Simulation time: 0 hr 12 min 51 sec) 
Heartbeat CPU  1 instructions:  103000002 cycles:  297281140 heartbeat IPC: 0.14209 cumulative IPC: 0.16808 (Simulation time: 0 hr 12 min 53 sec) 
Heartbeat CPU  2 instructions:   87000002 cycles:  298760381 heartbeat IPC: 0.21724 cumulative IPC: 0.13049 (Simulation time: 0 hr 12 min 56 sec) 
Heartbeat CPU  3 instructions:  101000000 cycles:  300642718 heartbeat IPC: 0.16005 cumulative IPC: 0.15444 (Simulation time: 0 hr 12 min 58 sec) 
Heartbeat CPU  1 instructions:  104000000 cycles:  304295929 heartbeat IPC: 0.14256 cumulative IPC: 0.16745 (Simulation time: 0 hr 13 min 4 sec) 
Heartbeat CPU  0 instructions:   85000003 cycles:  304608577 heartbeat IPC: 0.11726 cumulative IPC: 0.12422 (Simulation time: 0 hr 13 min 4 sec) 
Heartbeat CPU  2 instructions:   88000000 cycles:  305836278 heartbeat IPC: 0.14132 cumulative IPC: 0.13077 (Simulation time: 0 hr 13 min 6 sec) 
Heartbeat CPU  3 instructions:  102000002 cycles:  306777114 heartbeat IPC: 0.16302 cumulative IPC: 0.15463 (Simulation time: 0 hr 13 min 8 sec) 
Heartbeat CPU  0 instructions:   86000000 cycles:  309446417 heartbeat IPC: 0.20670 cumulative IPC: 0.12562 (Simulation time: 0 hr 13 min 12 sec) 
Heartbeat CPU  1 instructions:  105000003 cycles:  311285496 heartbeat IPC: 0.14307 cumulative IPC: 0.16686 (Simulation time: 0 hr 13 min 15 sec) 
Heartbeat CPU  3 instructions:  103000001 cycles:  313081720 heartbeat IPC: 0.15861 cumulative IPC: 0.15472 (Simulation time: 0 hr 13 min 18 sec) 
Heartbeat CPU  2 instructions:   89000000 cycles:  313957257 heartbeat IPC: 0.12314 cumulative IPC: 0.13055 (Simulation time: 0 hr 13 min 19 sec) 
Heartbeat CPU  0 instructions:   87000002 cycles:  314605746 heartbeat IPC: 0.19382 cumulative IPC: 0.12682 (Simulation time: 0 hr 13 min 20 sec) 
Heartbeat CPU  1 instructions:  106000002 cycles:  318333558 heartbeat IPC: 0.14188 cumulative IPC: 0.16626 (Simulation time: 0 hr 13 min 25 sec) 
Heartbeat CPU  3 instructions:  104000000 cycles:  319338999 heartbeat IPC: 0.15981 cumulative IPC: 0.15482 (Simulation time: 0 hr 13 min 27 sec) 
Heartbeat CPU  2 instructions:   90000001 cycles:  322144375 heartbeat IPC: 0.12214 cumulative IPC: 0.13032 (Simulation time: 0 hr 13 min 31 sec) 
Heartbeat CPU  0 instructions:   88000000 cycles:  322635539 heartbeat IPC: 0.12454 cumulative IPC: 0.12676 (Simulation time: 0 hr 13 min 31 sec) 
Heartbeat CPU  1 instructions:  107000000 cycles:  325352263 heartbeat IPC: 0.14248 cumulative IPC: 0.16571 (Simulation time: 0 hr 13 min 35 sec) 
Heartbeat CPU  3 instructions:  105000002 cycles:  325604976 heartbeat IPC: 0.15959 cumulative IPC: 0.15492 (Simulation time: 0 hr 13 min 35 sec) 
Heartbeat CPU  2 instructions:   91000003 cycles:  330382448 heartbeat IPC: 0.12139 cumulative IPC: 0.13008 (Simulation time: 0 hr 13 min 42 sec) 
Heartbeat CPU  0 instructions:   89000000 cycles:  330968926 heartbeat IPC: 0.12000 cumulative IPC: 0.12658 (Simulation time: 0 hr 13 min 43 sec) 
Heartbeat CPU  3 instructions:  106000002 cycles:  331880251 heartbeat IPC: 0.15936 cumulative IPC: 0.15501 (Simulation time: 0 hr 13 min 44 sec) 
Heartbeat CPU  1 instructions:  108000000 cycles:  332355529 heartbeat IPC: 0.14279 cumulative IPC: 0.16519 (Simulation time: 0 hr 13 min 45 sec) 
Heartbeat CPU  3 instructions:  107000001 cycles:  338152100 heartbeat IPC: 0.15944 cumulative IPC: 0.15510 (Simulation time: 0 hr 13 min 53 sec) 
Heartbeat CPU  2 instructions:   92000000 cycles:  338638663 heartbeat IPC: 0.12112 cumulative IPC: 0.12985 (Simulation time: 0 hr 13 min 54 sec) 
Heartbeat CPU  0 instructions:   90000001 cycles:  339304910 heartbeat IPC: 0.11996 cumulative IPC: 0.12640 (Simulation time: 0 hr 13 min 55 sec) 
Heartbeat CPU  1 instructions:  109000000 cycles:  339315019 heartbeat IPC: 0.14369 cumulative IPC: 0.16472 (Simulation time: 0 hr 13 min 55 sec) 
Heartbeat CPU  3 instructions:  108000000 cycles:  344425316 heartbeat IPC: 0.15941 cumulative IPC: 0.15518 (Simulation time: 0 hr 14 min 2 sec) 
Heartbeat CPU  1 instructions:  110000001 cycles:  346227893 heartbeat IPC: 0.14466 cumulative IPC: 0.16429 (Simulation time: 0 hr 14 min 4 sec) 
Heartbeat CPU  2 instructions:   93000003 cycles:  346847431 heartbeat IPC: 0.12182 cumulative IPC: 0.12965 (Simulation time: 0 hr 14 min 5 sec) 
Heartbeat CPU  0 instructions:   91000000 cycles:  347731222 heartbeat IPC: 0.11868 cumulative IPC: 0.12620 (Simulation time: 0 hr 14 min 6 sec) 
Heartbeat CPU  3 instructions:  109000003 cycles:  350716495 heartbeat IPC: 0.15895 cumulative IPC: 0.15526 (Simulation time: 0 hr 14 min 11 sec) 
Heartbeat CPU  1 instructions:  111000001 cycles:  353255557 heartbeat IPC: 0.14229 cumulative IPC: 0.16382 (Simulation time: 0 hr 14 min 14 sec) 
Heartbeat CPU  2 instructions:   94000003 cycles:  355030250 heartbeat IPC: 0.12221 cumulative IPC: 0.12946 (Simulation time: 0 hr 14 min 17 sec) 
Heartbeat CPU  0 instructions:   92000000 cycles:  356116953 heartbeat IPC: 0.11925 cumulative IPC: 0.12603 (Simulation time: 0 hr 14 min 18 sec) 
Heartbeat CPU  3 instructions:  110000000 cycles:  357013968 heartbeat IPC: 0.15879 cumulative IPC: 0.15532 (Simulation time: 0 hr 14 min 20 sec) 
Heartbeat CPU  1 instructions:  112000000 cycles:  360288174 heartbeat IPC: 0.14219 cumulative IPC: 0.16337 (Simulation time: 0 hr 14 min 24 sec) 
Heartbeat CPU  2 instructions:   95000000 cycles:  363247962 heartbeat IPC: 0.12169 cumulative IPC: 0.12927 (Simulation time: 0 hr 14 min 28 sec) 
Heartbeat CPU  3 instructions:  111000003 cycles:  363329791 heartbeat IPC: 0.15833 cumulative IPC: 0.15538 (Simulation time: 0 hr 14 min 28 sec) 
Heartbeat CPU  0 instructions:   93000003 cycles:  364494784 heartbeat IPC: 0.11936 cumulative IPC: 0.12587 (Simulation time: 0 hr 14 min 30 sec) 
Heartbeat CPU  1 instructions:  113000003 cycles:  367307741 heartbeat IPC: 0.14246 cumulative IPC: 0.16294 (Simulation time: 0 hr 14 min 34 sec) 
Heartbeat CPU  3 instructions:  112000000 cycles:  369641867 heartbeat IPC: 0.15843 cumulative IPC: 0.15543 (Simulation time: 0 hr 14 min 37 sec) 
Heartbeat CPU  2 instructions:   96000000 cycles:  371489684 heartbeat IPC: 0.12133 cumulative IPC: 0.12909 (Simulation time: 0 hr 14 min 40 sec) 
Heartbeat CPU  0 instructions:   94000003 cycles:  372928267 heartbeat IPC: 0.11857 cumulative IPC: 0.12569 (Simulation time: 0 hr 14 min 42 sec) 
Heartbeat CPU  1 instructions:  114000003 cycles:  374360597 heartbeat IPC: 0.14179 cumulative IPC: 0.16252 (Simulation time: 0 hr 14 min 44 sec) 
Heartbeat CPU  3 instructions:  113000000 cycles:  375964829 heartbeat IPC: 0.15815 cumulative IPC: 0.15548 (Simulation time: 0 hr 14 min 46 sec) 
Heartbeat CPU  2 instructions:   97000002 cycles:  379981591 heartbeat IPC: 0.11776 cumulative IPC: 0.12882 (Simulation time: 0 hr 14 min 52 sec) 
Heartbeat CPU  1 instructions:  115000002 cycles:  381370864 heartbeat IPC: 0.14265 cumulative IPC: 0.16213 (Simulation time: 0 hr 14 min 54 sec) 
Heartbeat CPU  0 instructions:   95000000 cycles:  381376133 heartbeat IPC: 0.11837 cumulative IPC: 0.12552 (Simulation time: 0 hr 14 min 54 sec) 
Heartbeat CPU  3 instructions:  114000003 cycles:  382389578 heartbeat IPC: 0.15565 cumulative IPC: 0.15549 (Simulation time: 0 hr 14 min 55 sec) 
Heartbeat CPU  2 instructions:   98000003 cycles:  388220116 heartbeat IPC: 0.12138 cumulative IPC: 0.12865 (Simulation time: 0 hr 15 min 3 sec) 
Heartbeat CPU  1 instructions:  116000000 cycles:  388297482 heartbeat IPC: 0.14437 cumulative IPC: 0.16180 (Simulation time: 0 hr 15 min 3 sec) 
Heartbeat CPU  3 instructions:  115000002 cycles:  388790196 heartbeat IPC: 0.15623 cumulative IPC: 0.15550 (Simulation time: 0 hr 15 min 4 sec) 
Heartbeat CPU  0 instructions:   96000000 cycles:  389781715 heartbeat IPC: 0.11897 cumulative IPC: 0.12537 (Simulation time: 0 hr 15 min 6 sec) 
Heartbeat CPU  3 instructions:  116000000 cycles:  395177760 heartbeat IPC: 0.15655 cumulative IPC: 0.15552 (Simulation time: 0 hr 15 min 13 sec) 
Heartbeat CPU  1 instructions:  117000003 cycles:  395298921 heartbeat IPC: 0.14283 cumulative IPC: 0.16144 (Simulation time: 0 hr 15 min 13 sec) 
Heartbeat CPU  2 instructions:   99000001 cycles:  396530007 heartbeat IPC: 0.12034 cumulative IPC: 0.12847 (Simulation time: 0 hr 15 min 15 sec) 
Heartbeat CPU  0 instructions:   97000000 cycles:  398456421 heartbeat IPC: 0.11528 cumulative IPC: 0.12513 (Simulation time: 0 hr 15 min 18 sec) 
Heartbeat CPU  3 instructions:  117000001 cycles:  401583837 heartbeat IPC: 0.15610 cumulative IPC: 0.15553 (Simulation time: 0 hr 15 min 22 sec) 
Heartbeat CPU  1 instructions:  118000001 cycles:  402285055 heartbeat IPC: 0.14314 cumulative IPC: 0.16110 (Simulation time: 0 hr 15 min 23 sec) 
*** Reached end of trace for Core: 2 Repeating trace: /data3/CLOUD9/traces/cloud9_phase2_core2.trace.xz
Heartbeat CPU  2 instructions:  100000000 cycles:  404836569 heartbeat IPC: 0.12039 cumulative IPC: 0.12829 (Simulation time: 0 hr 15 min 27 sec) 
Heartbeat CPU  0 instructions:   98000003 cycles:  406918433 heartbeat IPC: 0.11818 cumulative IPC: 0.12498 (Simulation time: 0 hr 15 min 30 sec) 
Heartbeat CPU  3 instructions:  118000002 cycles:  407965640 heartbeat IPC: 0.15670 cumulative IPC: 0.15555 (Simulation time: 0 hr 15 min 31 sec) 
Heartbeat CPU  1 instructions:  119000001 cycles:  409300628 heartbeat IPC: 0.14254 cumulative IPC: 0.16076 (Simulation time: 0 hr 15 min 33 sec) 
Heartbeat CPU  2 instructions:  101000002 cycles:  413017865 heartbeat IPC: 0.12223 cumulative IPC: 0.12816 (Simulation time: 0 hr 15 min 38 sec) 
Heartbeat CPU  3 instructions:  119000002 cycles:  414360795 heartbeat IPC: 0.15637 cumulative IPC: 0.15556 (Simulation time: 0 hr 15 min 40 sec) 
Heartbeat CPU  0 instructions:   99000003 cycles:  415414313 heartbeat IPC: 0.11770 cumulative IPC: 0.12482 (Simulation time: 0 hr 15 min 41 sec) 
Heartbeat CPU  1 instructions:  120000000 cycles:  416344532 heartbeat IPC: 0.14197 cumulative IPC: 0.16043 (Simulation time: 0 hr 15 min 43 sec) 
Heartbeat CPU  3 instructions:  120000000 cycles:  420782965 heartbeat IPC: 0.15571 cumulative IPC: 0.15556 (Simulation time: 0 hr 15 min 49 sec) 
Heartbeat CPU  2 instructions:  102000001 cycles:  421189486 heartbeat IPC: 0.12237 cumulative IPC: 0.12804 (Simulation time: 0 hr 15 min 50 sec) 
*** Reached end of trace for Core: 0 Repeating trace: /data3/CLOUD9/traces/cloud9_phase2_core0.trace.xz
Heartbeat CPU  0 instructions:  100000000 cycles:  422877050 heartbeat IPC: 0.13400 cumulative IPC: 0.12499 (Simulation time: 0 hr 15 min 52 sec) 
Heartbeat CPU  1 instructions:  121000000 cycles:  423309496 heartbeat IPC: 0.14358 cumulative IPC: 0.16014 (Simulation time: 0 hr 15 min 53 sec) 
Heartbeat CPU  3 instructions:  121000003 cycles:  427193014 heartbeat IPC: 0.15601 cumulative IPC: 0.15557 (Simulation time: 0 hr 15 min 58 sec) 
Heartbeat CPU  2 instructions:  103000003 cycles:  429393327 heartbeat IPC: 0.12189 cumulative IPC: 0.12792 (Simulation time: 0 hr 16 min 1 sec) 
Heartbeat CPU  1 instructions:  122000003 cycles:  430299209 heartbeat IPC: 0.14307 cumulative IPC: 0.15984 (Simulation time: 0 hr 16 min 3 sec) 
Heartbeat CPU  0 instructions:  101000003 cycles:  431220160 heartbeat IPC: 0.11986 cumulative IPC: 0.12489 (Simulation time: 0 hr 16 min 4 sec) 
Heartbeat CPU  3 instructions:  122000002 cycles:  433602114 heartbeat IPC: 0.15603 cumulative IPC: 0.15558 (Simulation time: 0 hr 16 min 7 sec) 
Heartbeat CPU  1 instructions:  123000001 cycles:  437344458 heartbeat IPC: 0.14194 cumulative IPC: 0.15954 (Simulation time: 0 hr 16 min 13 sec) 
Heartbeat CPU  2 instructions:  104000000 cycles:  437595529 heartbeat IPC: 0.12192 cumulative IPC: 0.12780 (Simulation time: 0 hr 16 min 13 sec) 
Heartbeat CPU  0 instructions:  102000000 cycles:  439550288 heartbeat IPC: 0.12005 cumulative IPC: 0.12479 (Simulation time: 0 hr 16 min 16 sec) 
Heartbeat CPU  3 instructions:  123000001 cycles:  440034465 heartbeat IPC: 0.15546 cumulative IPC: 0.15557 (Simulation time: 0 hr 16 min 16 sec) 
Heartbeat CPU  1 instructions:  124000000 cycles:  444368769 heartbeat IPC: 0.14236 cumulative IPC: 0.15925 (Simulation time: 0 hr 16 min 22 sec) 
Heartbeat CPU  2 instructions:  105000002 cycles:  445903833 heartbeat IPC: 0.12036 cumulative IPC: 0.12765 (Simulation time: 0 hr 16 min 25 sec) 
Heartbeat CPU  3 instructions:  124000000 cycles:  446468352 heartbeat IPC: 0.15543 cumulative IPC: 0.15557 (Simulation time: 0 hr 16 min 25 sec) 
Heartbeat CPU  0 instructions:  103000002 cycles:  447981873 heartbeat IPC: 0.11860 cumulative IPC: 0.12467 (Simulation time: 0 hr 16 min 27 sec) 
Heartbeat CPU  1 instructions:  125000002 cycles:  451420859 heartbeat IPC: 0.14180 cumulative IPC: 0.15896 (Simulation time: 0 hr 16 min 32 sec) 
Heartbeat CPU  3 instructions:  125000000 cycles:  452868437 heartbeat IPC: 0.15625 cumulative IPC: 0.15558 (Simulation time: 0 hr 16 min 34 sec) 
Heartbeat CPU  2 instructions:  106000000 cycles:  454073652 heartbeat IPC: 0.12240 cumulative IPC: 0.12756 (Simulation time: 0 hr 16 min 36 sec) 
Heartbeat CPU  0 instructions:  104000000 cycles:  456387779 heartbeat IPC: 0.11896 cumulative IPC: 0.12456 (Simulation time: 0 hr 16 min 39 sec) 
Heartbeat CPU  3 instructions:  126000002 cycles:  459265810 heartbeat IPC: 0.15631 cumulative IPC: 0.15559 (Simulation time: 0 hr 16 min 43 sec) 
Heartbeat CPU  1 instructions:  126000003 cycles:  459668842 heartbeat IPC: 0.12124 cumulative IPC: 0.15825 (Simulation time: 0 hr 16 min 44 sec) 
Heartbeat CPU  2 instructions:  107000001 cycles:  462333924 heartbeat IPC: 0.12106 cumulative IPC: 0.12743 (Simulation time: 0 hr 16 min 48 sec) 
Heartbeat CPU  0 instructions:  105000003 cycles:  464738251 heartbeat IPC: 0.11975 cumulative IPC: 0.12447 (Simulation time: 0 hr 16 min 51 sec) 
Heartbeat CPU  3 instructions:  127000001 cycles:  465664758 heartbeat IPC: 0.15628 cumulative IPC: 0.15560 (Simulation time: 0 hr 16 min 52 sec) 
Heartbeat CPU  1 instructions:  127000003 cycles:  466689810 heartbeat IPC: 0.14243 cumulative IPC: 0.15800 (Simulation time: 0 hr 16 min 54 sec) 
Heartbeat CPU  2 instructions:  108000000 cycles:  470576766 heartbeat IPC: 0.12132 cumulative IPC: 0.12732 (Simulation time: 0 hr 16 min 59 sec) 
Heartbeat CPU  3 instructions:  128000000 cycles:  471932115 heartbeat IPC: 0.15956 cumulative IPC: 0.15566 (Simulation time: 0 hr 17 min 1 sec) 
Heartbeat CPU  0 instructions:  106000003 cycles:  473156745 heartbeat IPC: 0.11879 cumulative IPC: 0.12436 (Simulation time: 0 hr 17 min 3 sec) 
Heartbeat CPU  1 instructions:  128000000 cycles:  473716769 heartbeat IPC: 0.14231 cumulative IPC: 0.15776 (Simulation time: 0 hr 17 min 3 sec) 
Heartbeat CPU  3 instructions:  129000000 cycles:  478330848 heartbeat IPC: 0.15628 cumulative IPC: 0.15567 (Simulation time: 0 hr 17 min 10 sec) 
Heartbeat CPU  2 instructions:  109000001 cycles:  479026962 heartbeat IPC: 0.11834 cumulative IPC: 0.12715 (Simulation time: 0 hr 17 min 11 sec) 
Heartbeat CPU  1 instructions:  129000002 cycles:  480710648 heartbeat IPC: 0.14298 cumulative IPC: 0.15753 (Simulation time: 0 hr 17 min 13 sec) 
Heartbeat CPU  0 instructions:  107000001 cycles:  481614560 heartbeat IPC: 0.11823 cumulative IPC: 0.12425 (Simulation time: 0 hr 17 min 15 sec) 
Heartbeat CPU  3 instructions:  130000000 cycles:  484724143 heartbeat IPC: 0.15641 cumulative IPC: 0.15568 (Simulation time: 0 hr 17 min 19 sec) 
Heartbeat CPU  2 instructions:  110000002 cycles:  487305029 heartbeat IPC: 0.12080 cumulative IPC: 0.12704 (Simulation time: 0 hr 17 min 23 sec) 
Heartbeat CPU  1 instructions:  130000003 cycles:  487751367 heartbeat IPC: 0.14203 cumulative IPC: 0.15730 (Simulation time: 0 hr 17 min 23 sec) 
Heartbeat CPU  0 instructions:  108000000 cycles:  490051844 heartbeat IPC: 0.11852 cumulative IPC: 0.12415 (Simulation time: 0 hr 17 min 26 sec) 
Heartbeat CPU  3 instructions:  131000000 cycles:  491111657 heartbeat IPC: 0.15656 cumulative IPC: 0.15569 (Simulation time: 0 hr 17 min 28 sec) 
Heartbeat CPU  1 instructions:  131000002 cycles:  494760064 heartbeat IPC: 0.14268 cumulative IPC: 0.15708 (Simulation time: 0 hr 17 min 33 sec) 
Heartbeat CPU  2 instructions:  111000001 cycles:  495609769 heartbeat IPC: 0.12041 cumulative IPC: 0.12692 (Simulation time: 0 hr 17 min 34 sec) 
Heartbeat CPU  3 instructions:  132000000 cycles:  497525123 heartbeat IPC: 0.15592 cumulative IPC: 0.15569 (Simulation time: 0 hr 17 min 37 sec) 
Heartbeat CPU  0 instructions:  109000000 cycles:  498722539 heartbeat IPC: 0.11533 cumulative IPC: 0.12399 (Simulation time: 0 hr 17 min 39 sec) 
Heartbeat CPU  1 instructions:  132000000 cycles:  501720856 heartbeat IPC: 0.14366 cumulative IPC: 0.15688 (Simulation time: 0 hr 17 min 43 sec) 
Heartbeat CPU  2 instructions:  112000000 cycles:  503505428 heartbeat IPC: 0.12665 cumulative IPC: 0.12692 (Simulation time: 0 hr 17 min 45 sec) 
Heartbeat CPU  3 instructions:  133000000 cycles:  503927954 heartbeat IPC: 0.15618 cumulative IPC: 0.15570 (Simulation time: 0 hr 17 min 46 sec) 
Heartbeat CPU  0 instructions:  110000000 cycles:  507187824 heartbeat IPC: 0.11813 cumulative IPC: 0.12388 (Simulation time: 0 hr 17 min 51 sec) 
Heartbeat CPU  2 instructions:  113000001 cycles:  508078275 heartbeat IPC: 0.21868 cumulative IPC: 0.12778 (Simulation time: 0 hr 17 min 53 sec) 
Heartbeat CPU  1 instructions:  133000002 cycles:  508744473 heartbeat IPC: 0.14238 cumulative IPC: 0.15668 (Simulation time: 0 hr 17 min 54 sec) 
Heartbeat CPU  3 instructions:  134000000 cycles:  510349778 heartbeat IPC: 0.15572 cumulative IPC: 0.15570 (Simulation time: 0 hr 17 min 57 sec) 
Heartbeat CPU  2 instructions:  114000003 cycles:  513411397 heartbeat IPC: 0.18751 cumulative IPC: 0.12843 (Simulation time: 0 hr 18 min 1 sec) 
Heartbeat CPU  0 instructions:  111000000 cycles:  515671255 heartbeat IPC: 0.11788 cumulative IPC: 0.12378 (Simulation time: 0 hr 18 min 4 sec) 
Heartbeat CPU  1 instructions:  134000002 cycles:  515791941 heartbeat IPC: 0.14189 cumulative IPC: 0.15646 (Simulation time: 0 hr 18 min 4 sec) 
Heartbeat CPU  3 instructions:  135000003 cycles:  516769347 heartbeat IPC: 0.15577 cumulative IPC: 0.15570 (Simulation time: 0 hr 18 min 6 sec) 
Heartbeat CPU  2 instructions:  115000003 cycles:  521603636 heartbeat IPC: 0.12207 cumulative IPC: 0.12833 (Simulation time: 0 hr 18 min 13 sec) 
Heartbeat CPU  1 instructions:  135000000 cycles:  522853547 heartbeat IPC: 0.14161 cumulative IPC: 0.15625 (Simulation time: 0 hr 18 min 15 sec) 
Heartbeat CPU  0 instructions:  112000000 cycles:  522927884 heartbeat IPC: 0.13781 cumulative IPC: 0.12398 (Simulation time: 0 hr 18 min 15 sec) 
Heartbeat CPU  3 instructions:  136000000 cycles:  523208816 heartbeat IPC: 0.15529 cumulative IPC: 0.15569 (Simulation time: 0 hr 18 min 15 sec) 
Heartbeat CPU  0 instructions:  113000003 cycles:  527633322 heartbeat IPC: 0.21252 cumulative IPC: 0.12481 (Simulation time: 0 hr 18 min 23 sec) 
Heartbeat CPU  3 instructions:  137000003 cycles:  529635047 heartbeat IPC: 0.15561 cumulative IPC: 0.15569 (Simulation time: 0 hr 18 min 26 sec) 
Heartbeat CPU  2 instructions:  116000000 cycles:  529748279 heartbeat IPC: 0.12278 cumulative IPC: 0.12824 (Simulation time: 0 hr 18 min 26 sec) 
Heartbeat CPU  1 instructions:  136000000 cycles:  529959518 heartbeat IPC: 0.14073 cumulative IPC: 0.15604 (Simulation time: 0 hr 18 min 26 sec) 
Heartbeat CPU  0 instructions:  114000002 cycles:  534005742 heartbeat IPC: 0.15693 cumulative IPC: 0.12521 (Simulation time: 0 hr 18 min 33 sec) 
Heartbeat CPU  1 instructions:  137000000 cycles:  535717539 heartbeat IPC: 0.17367 cumulative IPC: 0.15623 (Simulation time: 0 hr 18 min 35 sec) 
Heartbeat CPU  3 instructions:  138000003 cycles:  536097796 heartbeat IPC: 0.15473 cumulative IPC: 0.15568 (Simulation time: 0 hr 18 min 36 sec) 
Heartbeat CPU  2 instructions:  117000001 cycles:  537931629 heartbeat IPC: 0.12220 cumulative IPC: 0.12814 (Simulation time: 0 hr 18 min 39 sec) 
Heartbeat CPU  1 instructions:  138000001 cycles:  541424595 heartbeat IPC: 0.17522 cumulative IPC: 0.15644 (Simulation time: 0 hr 18 min 44 sec) 
Heartbeat CPU  0 instructions:  115000000 cycles:  542256820 heartbeat IPC: 0.12120 cumulative IPC: 0.12515 (Simulation time: 0 hr 18 min 45 sec) 
Heartbeat CPU  3 instructions:  139000001 cycles:  542538710 heartbeat IPC: 0.15526 cumulative IPC: 0.15568 (Simulation time: 0 hr 18 min 46 sec) 
Heartbeat CPU  2 instructions:  118000001 cycles:  546188922 heartbeat IPC: 0.12111 cumulative IPC: 0.12803 (Simulation time: 0 hr 18 min 51 sec) 
Heartbeat CPU  1 instructions:  139000002 cycles:  547766448 heartbeat IPC: 0.15768 cumulative IPC: 0.15646 (Simulation time: 0 hr 18 min 54 sec) 
Heartbeat CPU  3 instructions:  140000000 cycles:  549097141 heartbeat IPC: 0.15248 cumulative IPC: 0.15564 (Simulation time: 0 hr 18 min 56 sec) 
Heartbeat CPU  0 instructions:  116000000 cycles:  550586755 heartbeat IPC: 0.12005 cumulative IPC: 0.12506 (Simulation time: 0 hr 18 min 58 sec) 
Heartbeat CPU  1 instructions:  140000000 cycles:  554244247 heartbeat IPC: 0.15437 cumulative IPC: 0.15643 (Simulation time: 0 hr 19 min 3 sec) 
Heartbeat CPU  2 instructions:  119000001 cycles:  554502521 heartbeat IPC: 0.12028 cumulative IPC: 0.12791 (Simulation time: 0 hr 19 min 4 sec) 
Heartbeat CPU  3 instructions:  141000000 cycles:  555637497 heartbeat IPC: 0.15290 cumulative IPC: 0.15560 (Simulation time: 0 hr 19 min 6 sec) 
Heartbeat CPU  0 instructions:  117000002 cycles:  558861907 heartbeat IPC: 0.12084 cumulative IPC: 0.12500 (Simulation time: 0 hr 19 min 10 sec) 
Heartbeat CPU  1 instructions:  141000003 cycles:  560966612 heartbeat IPC: 0.14876 cumulative IPC: 0.15634 (Simulation time: 0 hr 19 min 13 sec) 
Heartbeat CPU  3 instructions:  142000000 cycles:  562154285 heartbeat IPC: 0.15345 cumulative IPC: 0.15558 (Simulation time: 0 hr 19 min 15 sec) 
Heartbeat CPU  2 instructions:  120000000 cycles:  562718617 heartbeat IPC: 0.12171 cumulative IPC: 0.12782 (Simulation time: 0 hr 19 min 16 sec) 
Heartbeat CPU  0 instructions:  118000000 cycles:  567223959 heartbeat IPC: 0.11959 cumulative IPC: 0.12492 (Simulation time: 0 hr 19 min 22 sec) 
Heartbeat CPU  1 instructions:  142000002 cycles:  567895489 heartbeat IPC: 0.14432 cumulative IPC: 0.15618 (Simulation time: 0 hr 19 min 23 sec) 
[...]
Core_0_LLC_acc_level_1 66900
Core_0_LLC_acc_level_2 42685
Core_0_LLC_acc_level_3 15502
Core_0_LLC_acc_level_4 5979
Core_0_LLC_acc_level_5 29065
Core_0_LLC_acc_level_6 4964
Core_0_LLC_acc_level_7 5779
Core_0_LLC_acc_level_8 2457
Core_0_LLC_acc_level_9 24756

Core_0_major_page_fault 0
Core_0_minor_page_fault 1890

Core_1_instructions 150000002
Core_1_cycles 942648664
Core_1_IPC 0.15913

Core_1_branch_prediction_accuracy 98.92211
Core_1_branch_MPKI 2.17494
Core_1_average_ROB_occupancy_at_mispredict 173.78937

Core_1_L1D_total_access 24351253
Core_1_L1D_total_hit 23321018
Core_1_L1D_total_miss 1030235
Core_1_L1D_loads 14498409
Core_1_L1D_load_hit 13643956
Core_1_L1D_load_miss 854453
Core_1_L1D_RFOs 9852844
Core_1_L1D_RFO_hit 9677062
Core_1_L1D_RFO_miss 175782
Core_1_L1D_prefetches 0
Core_1_L1D_prefetch_hit 0
Core_1_L1D_prefetch_miss 0
Core_1_L1D_writebacks 0
Core_1_L1D_writeback_hit 0
Core_1_L1D_writeback_miss 0
Core_1_L1D_prefetch_requested 0
Core_1_L1D_prefetch_dropped 0
Core_1_L1D_prefetch_issued 0
Core_1_L1D_prefetch_filled 0
Core_1_L1D_prefetch_useful 0
Core_1_L1D_prefetch_useless 0
Core_1_L1D_prefetch_late 0
Core_1_L1D_average_miss_latency 171.15855

Core_1_L1D_rq_access 26675692
Core_1_L1D_rq_forward 0
Core_1_L1D_rq_merged 8445768
Core_1_L1D_rq_to_cache 18229271
Core_1_L1D_rq_full 0

Core_1_L1D_wq_access 13144162
Core_1_L1D_wq_forward 653
Core_1_L1D_wq_merged 199390
Core_1_L1D_wq_to_cache 12944772
Core_1_L1D_wq_full 5137

Core_1_L1D_pq_access 0
Core_1_L1D_pq_forward 0
Core_1_L1D_pq_merged 0
Core_1_L1D_pq_to_cache 0
Core_1_L1D_pq_full 0

Core_1_L1D_acc_epochs 210564
Core_1_L1D_acc_level_0 210564
Core_1_L1D_acc_level_1 0
Core_1_L1D_acc_level_2 0
Core_1_L1D_acc_level_3 0
Core_1_L1D_acc_level_4 0
Core_1_L1D_acc_level_5 0
Core_1_L1D_acc_level_6 0
Core_1_L1D_acc_level_7 0
Core_1_L1D_acc_level_8 0
Core_1_L1D_acc_level_9 0

Core_1_L1I_total_access 38291613
Core_1_L1I_total_hit 38169949
Core_1_L1I_total_miss 121664
Core_1_L1I_loads 38291613
Core_1_L1I_load_hit 38169949
Core_1_L1I_load_miss 121664
Core_1_L1I_RFOs 0
Core_1_L1I_RFO_hit 0
Core_1_L1I_RFO_miss 0
Core_1_L1I_prefetches 0
Core_1_L1I_prefetch_hit 0
Core_1_L1I_prefetch_miss 0
Core_1_L1I_writebacks 0
Core_1_L1I_writeback_hit 0
Core_1_L1I_writeback_miss 0
Core_1_L1I_prefetch_requested 0
Core_1_L1I_prefetch_dropped 0
Core_1_L1I_prefetch_issued 0
Core_1_L1I_prefetch_filled 0
Core_1_L1I_prefetch_useful 0
Core_1_L1I_prefetch_useless 0
Core_1_L1I_prefetch_late 0
Core_1_L1I_average_miss_latency 170.61682

Core_1_L1I_rq_access 187173267
Core_1_L1I_rq_forward 0
Core_1_L1I_rq_merged 139708960
Core_1_L1I_rq_to_cache 47464307
Core_1_L1I_rq_full 0

Core_1_L1I_wq_access 0
Core_1_L1I_wq_forward 0
Core_1_L1I_wq_merged 0
Core_1_L1I_wq_to_cache 0
Core_1_L1I_wq_full 0

Core_1_L1I_pq_access 0
Core_1_L1I_pq_forward 0
Core_1_L1I_pq_merged 0
Core_1_L1I_pq_to_cache 0
Core_1_L1I_pq_full 0

Core_1_L1I_acc_epochs 210564
Core_1_L1I_acc_level_0 210564
Core_1_L1I_acc_level_1 0
Core_1_L1I_acc_level_2 0
Core_1_L1I_acc_level_3 0
Core_1_L1I_acc_level_4 0
Core_1_L1I_acc_level_5 0
Core_1_L1I_acc_level_6 0
Core_1_L1I_acc_level_7 0
Core_1_L1I_acc_level_8 0
Core_1_L1I_acc_level_9 0

Core_1_L2C_total_access 2267223
Core_1_L2C_total_hit 1420285
Core_1_L2C_total_miss 846938
Core_1_L2C_loads 976108
Core_1_L2C_load_hit 454738
Core_1_L2C_load_miss 521370
Core_1_L2C_RFOs 175772
Core_1_L2C_RFO_hit 49939
Core_1_L2C_RFO_miss 125833
Core_1_L2C_prefetches 509038
Core_1_L2C_prefetch_hit 311887
Core_1_L2C_prefetch_miss 197151
Core_1_L2C_writebacks 606305
Core_1_L2C_writeback_hit 603721
Core_1_L2C_writeback_miss 2584
Core_1_L2C_prefetch_requested 3805352
Core_1_L2C_prefetch_dropped 0
Core_1_L2C_prefetch_issued 3805352
Core_1_L2C_prefetch_filled 338948
Core_1_L2C_prefetch_useful 171498
Core_1_L2C_prefetch_useless 167249
Core_1_L2C_prefetch_late 5738
Core_1_L2C_average_miss_latency 188.37136

Core_1_L2C_rq_access 1473055
Core_1_L2C_rq_forward 0
Core_1_L2C_rq_merged 0
Core_1_L2C_rq_to_cache 1473031
Core_1_L2C_rq_full 0

Core_1_L2C_wq_access 766202
Core_1_L2C_wq_forward 26
Core_1_L2C_wq_merged 0
Core_1_L2C_wq_to_cache 766202
Core_1_L2C_wq_full 0

Core_1_L2C_pq_access 3805352
Core_1_L2C_pq_forward 0
Core_1_L2C_pq_merged 0
Core_1_L2C_pq_to_cache 3805350
Core_1_L2C_pq_full 0

Core_1_L2C_acc_epochs 210564
Core_1_L2C_acc_level_0 160556
Core_1_L2C_acc_level_1 11564
Core_1_L2C_acc_level_2 9104
Core_1_L2C_acc_level_3 4456
Core_1_L2C_acc_level_4 2935
Core_1_L2C_acc_level_5 7339
Core_1_L2C_acc_level_6 2534
Core_1_L2C_acc_level_7 2315
Core_1_L2C_acc_level_8 1513
Core_1_L2C_acc_level_9 8248

Core_1_LLC_total_access 3014962
Core_1_LLC_total_hit 1777039
Core_1_LLC_total_miss 1237923
Core_1_LLC_loads 516598
Core_1_LLC_load_hit 354254
Core_1_LLC_load_miss 162344
Core_1_LLC_RFOs 125823
Core_1_LLC_RFO_hit 28618
Core_1_LLC_RFO_miss 97205
Core_1_LLC_prefetches 1896234
Core_1_LLC_prefetch_hit 981444
Core_1_LLC_prefetch_miss 914790
Core_1_LLC_writebacks 476307
Core_1_LLC_writeback_hit 412723
Core_1_LLC_writeback_miss 63584
Core_1_LLC_prefetch_requested 0
Core_1_LLC_prefetch_dropped 0
Core_1_LLC_prefetch_issued 0
Core_1_LLC_prefetch_filled 3357974
Core_1_LLC_prefetch_useful 798928
Core_1_LLC_prefetch_useless 2505818
Core_1_LLC_prefetch_late 3048
Core_1_LLC_average_miss_latency 541.12797

Core_1_LLC_rq_access 2043343
Core_1_LLC_rq_forward 0
Core_1_LLC_rq_merged 0
Core_1_LLC_rq_to_cache 2043339
Core_1_LLC_rq_full 0

Core_1_LLC_wq_access 1913354
Core_1_LLC_wq_forward 12
Core_1_LLC_wq_merged 0
Core_1_LLC_wq_to_cache 1913354
Core_1_LLC_wq_full 0

Core_1_LLC_pq_access 9709883
Core_1_LLC_pq_forward 0
Core_1_LLC_pq_merged 0
Core_1_LLC_pq_to_cache 9709873
Core_1_LLC_pq_full 0

Core_1_LLC_acc_epochs 1193937
Core_1_LLC_acc_level_0 995850
Core_1_LLC_acc_level_1 66900
Core_1_LLC_acc_level_2 42685
Core_1_LLC_acc_level_3 15502
Core_1_LLC_acc_level_4 5979
Core_1_LLC_acc_level_5 29065
Core_1_LLC_acc_level_6 4964
Core_1_LLC_acc_level_7 5779
Core_1_LLC_acc_level_8 2457
Core_1_LLC_acc_level_9 24756

Core_1_major_page_fault 0
Core_1_minor_page_fault 10522

Core_2_instructions 150000002
Core_2_cycles 1171114036
Core_2_IPC 0.12808

Core_2_branch_prediction_accuracy 99.42877
Core_2_branch_MPKI 1.30220
Core_2_average_ROB_occupancy_at_mispredict 134.39698

Core_2_L1D_total_access 24715026
Core_2_L1D_total_hit 23485187
Core_2_L1D_total_miss 1229839
Core_2_L1D_loads 14476647
Core_2_L1D_load_hit 13303793
Core_2_L1D_load_miss 1172854
Core_2_L1D_RFOs 10238379
Core_2_L1D_RFO_hit 10181394
Core_2_L1D_RFO_miss 56985
Core_2_L1D_prefetches 0
Core_2_L1D_prefetch_hit 0
Core_2_L1D_prefetch_miss 0
Core_2_L1D_writebacks 0
Core_2_L1D_writeback_hit 0
Core_2_L1D_writeback_miss 0
Core_2_L1D_prefetch_requested 0
Core_2_L1D_prefetch_dropped 0
Core_2_L1D_prefetch_issued 0
Core_2_L1D_prefetch_filled 0
Core_2_L1D_prefetch_useful 0
Core_2_L1D_prefetch_useless 0
Core_2_L1D_prefetch_late 0
Core_2_L1D_average_miss_latency 117.54881

Core_2_L1D_rq_access 21945860
Core_2_L1D_rq_forward 0
Core_2_L1D_rq_merged 7089524
Core_2_L1D_rq_to_cache 14856328
Core_2_L1D_rq_full 0

Core_2_L1D_wq_access 11585597
Core_2_L1D_wq_forward 8
Core_2_L1D_wq_merged 853230
Core_2_L1D_wq_to_cache 10732367
Core_2_L1D_wq_full 21202

Core_2_L1D_pq_access 0
Core_2_L1D_pq_forward 0
Core_2_L1D_pq_merged 0
Core_2_L1D_pq_to_cache 0
Core_2_L1D_pq_full 0

Core_2_L1D_acc_epochs 160446
Core_2_L1D_acc_level_0 160446
Core_2_L1D_acc_level_1 0
Core_2_L1D_acc_level_2 0
Core_2_L1D_acc_level_3 0
Core_2_L1D_acc_level_4 0
Core_2_L1D_acc_level_5 0
Core_2_L1D_acc_level_6 0
Core_2_L1D_acc_level_7 0
Core_2_L1D_acc_level_8 0
Core_2_L1D_acc_level_9 0

Core_2_L1I_total_access 41267285
Core_2_L1I_total_hit 41254888
Core_2_L1I_total_miss 12397
Core_2_L1I_loads 41267285
Core_2_L1I_load_hit 41254888
Core_2_L1I_load_miss 12397
Core_2_L1I_RFOs 0
Core_2_L1I_RFO_hit 0
Core_2_L1I_RFO_miss 0
Core_2_L1I_prefetches 0
Core_2_L1I_prefetch_hit 0
Core_2_L1I_prefetch_miss 0
Core_2_L1I_writebacks 0
Core_2_L1I_writeback_hit 0
Core_2_L1I_writeback_miss 0
Core_2_L1I_prefetch_requested 0
Core_2_L1I_prefetch_dropped 0
Core_2_L1I_prefetch_issued 0
Core_2_L1I_prefetch_filled 0
Core_2_L1I_prefetch_useful 0
Core_2_L1I_prefetch_useless 0
Core_2_L1I_prefetch_late 0
Core_2_L1I_average_miss_latency 170.49859

Core_2_L1I_rq_access 153474131
Core_2_L1I_rq_forward 0
Core_2_L1I_rq_merged 111216239
Core_2_L1I_rq_to_cache 42257892
Core_2_L1I_rq_full 0

Core_2_L1I_wq_access 0
Core_2_L1I_wq_forward 0
Core_2_L1I_wq_merged 0
Core_2_L1I_wq_to_cache 0
Core_2_L1I_wq_full 0

Core_2_L1I_pq_access 0
Core_2_L1I_pq_forward 0
Core_2_L1I_pq_merged 0
Core_2_L1I_pq_to_cache 0
Core_2_L1I_pq_full 0

Core_2_L1I_acc_epochs 160446
Core_2_L1I_acc_level_0 160446
Core_2_L1I_acc_level_1 0
Core_2_L1I_acc_level_2 0
Core_2_L1I_acc_level_3 0
Core_2_L1I_acc_level_4 0
Core_2_L1I_acc_level_5 0
Core_2_L1I_acc_level_6 0
Core_2_L1I_acc_level_7 0
Core_2_L1I_acc_level_8 0
Core_2_L1I_acc_level_9 0

Core_2_L2C_total_access 3033250
Core_2_L2C_total_hit 2010642
Core_2_L2C_total_miss 1022608
Core_2_L2C_loads 1185250
Core_2_L2C_load_hit 728783
Core_2_L2C_load_miss 456467
Core_2_L2C_RFOs 56981
Core_2_L2C_RFO_hit 12274
Core_2_L2C_RFO_miss 44707
Core_2_L2C_prefetches 1061620
Core_2_L2C_prefetch_hit 544768
Core_2_L2C_prefetch_miss 516852
Core_2_L2C_writebacks 729399
Core_2_L2C_writeback_hit 724817
Core_2_L2C_writeback_miss 4582
Core_2_L2C_prefetch_requested 2964159
Core_2_L2C_prefetch_dropped 0
Core_2_L2C_prefetch_issued 2964159
Core_2_L2C_prefetch_filled 697026
Core_2_L2C_prefetch_useful 558789
Core_2_L2C_prefetch_useless 137929
Core_2_L2C_prefetch_late 634
Core_2_L2C_average_miss_latency 183.69723

Core_2_L2C_rq_access 1270805
Core_2_L2C_rq_forward 0
Core_2_L2C_rq_merged 0
Core_2_L2C_rq_to_cache 1270800
Core_2_L2C_rq_full 0

Core_2_L2C_wq_access 745557
Core_2_L2C_wq_forward 5
Core_2_L2C_wq_merged 0
Core_2_L2C_wq_to_cache 745557
Core_2_L2C_wq_full 0

Core_2_L2C_pq_access 2964159
Core_2_L2C_pq_forward 0
Core_2_L2C_pq_merged 0
Core_2_L2C_pq_to_cache 2964159
Core_2_L2C_pq_full 0

Core_2_L2C_acc_epochs 160446
Core_2_L2C_acc_level_0 43481
Core_2_L2C_acc_level_1 16193
Core_2_L2C_acc_level_2 12525
Core_2_L2C_acc_level_3 9925
Core_2_L2C_acc_level_4 6958
Core_2_L2C_acc_level_5 9037
Core_2_L2C_acc_level_6 5961
Core_2_L2C_acc_level_7 5833
Core_2_L2C_acc_level_8 4720
Core_2_L2C_acc_level_9 45813

Core_2_LLC_total_access 2756716
Core_2_LLC_total_hit 2130029
Core_2_LLC_total_miss 626687
Core_2_LLC_loads 455867
Core_2_LLC_load_hit 393080
Core_2_LLC_load_miss 62787
Core_2_LLC_RFOs 44706
Core_2_LLC_RFO_hit 22461
Core_2_LLC_RFO_miss 22245
Core_2_LLC_prefetches 1708399
Core_2_LLC_prefetch_hit 1194060
Core_2_LLC_prefetch_miss 514339
Core_2_LLC_writebacks 547744
Core_2_LLC_writeback_hit 520428
Core_2_LLC_writeback_miss 27316
Core_2_LLC_prefetch_requested 0
Core_2_LLC_prefetch_dropped 0
Core_2_LLC_prefetch_issued 0
Core_2_LLC_prefetch_filled 3357974
Core_2_LLC_prefetch_useful 798928
Core_2_LLC_prefetch_useless 2505818
Core_2_LLC_prefetch_late 3048
Core_2_LLC_average_miss_latency 1068.91440

Core_2_LLC_rq_access 2043343
Core_2_LLC_rq_forward 0
Core_2_LLC_rq_merged 0
Core_2_LLC_rq_to_cache 2043339
Core_2_LLC_rq_full 0

Core_2_LLC_wq_access 1913354
Core_2_LLC_wq_forward 12
Core_2_LLC_wq_merged 0
Core_2_LLC_wq_to_cache 1913354
Core_2_LLC_wq_full 0

Core_2_LLC_pq_access 9709883
Core_2_LLC_pq_forward 0
Core_2_LLC_pq_merged 0
Core_2_LLC_pq_to_cache 9709873
Core_2_LLC_pq_full 0

Core_2_LLC_acc_epochs 1193937
Core_2_LLC_acc_level_0 995850
Core_2_LLC_acc_level_1 66900
Core_2_LLC_acc_level_2 42685
Core_2_LLC_acc_level_3 15502
Core_2_LLC_acc_level_4 5979
Core_2_LLC_acc_level_5 29065
Core_2_LLC_acc_level_6 4964
Core_2_LLC_acc_level_7 5779
Core_2_LLC_acc_level_8 2457
Core_2_LLC_acc_level_9 24756

Core_2_major_page_fault 0
Core_2_minor_page_fault 1756

Core_3_instructions 150000001
Core_3_cycles 966359163
Core_3_IPC 0.15522

Core_3_branch_prediction_accuracy 99.56495
Core_3_branch_MPKI 0.90171
Core_3_average_ROB_occupancy_at_mispredict 219.96169

Core_3_L1D_total_access 23345714
Core_3_L1D_total_hit 22967453
Core_3_L1D_total_miss 378261
Core_3_L1D_loads 13921090
Core_3_L1D_load_hit 13547918
Core_3_L1D_load_miss 373172
Core_3_L1D_RFOs 9424624
Core_3_L1D_RFO_hit 9419535
Core_3_L1D_RFO_miss 5089
Core_3_L1D_prefetches 0
Core_3_L1D_prefetch_hit 0
Core_3_L1D_prefetch_miss 0
Core_3_L1D_writebacks 0
Core_3_L1D_writeback_hit 0
Core_3_L1D_writeback_miss 0
Core_3_L1D_prefetch_requested 0
Core_3_L1D_prefetch_dropped 0
Core_3_L1D_prefetch_issued 0
Core_3_L1D_prefetch_filled 0
Core_3_L1D_prefetch_useful 0
Core_3_L1D_prefetch_useless 0
Core_3_L1D_prefetch_late 0
Core_3_L1D_average_miss_latency 123.98684

Core_3_L1D_rq_access 25485689
Core_3_L1D_rq_forward 0
Core_3_L1D_rq_merged 8155978
Core_3_L1D_rq_to_cache 17329321
Core_3_L1D_rq_full 0

Core_3_L1D_wq_access 11938724
Core_3_L1D_wq_forward 390
Core_3_L1D_wq_merged 195303
Core_3_L1D_wq_to_cache 11743421
Core_3_L1D_wq_full 0

Core_3_L1D_pq_access 0
Core_3_L1D_pq_forward 0
Core_3_L1D_pq_merged 0
Core_3_L1D_pq_to_cache 0
Core_3_L1D_pq_full 0

Core_3_L1D_acc_epochs 186283
Core_3_L1D_acc_level_0 186283
Core_3_L1D_acc_level_1 0
Core_3_L1D_acc_level_2 0
Core_3_L1D_acc_level_3 0
Core_3_L1D_acc_level_4 0
Core_3_L1D_acc_level_5 0
Core_3_L1D_acc_level_6 0
Core_3_L1D_acc_level_7 0
Core_3_L1D_acc_level_8 0
Core_3_L1D_acc_level_9 0

Core_3_L1I_total_access 40923490
Core_3_L1I_total_hit 40919817
Core_3_L1I_total_miss 3673
Core_3_L1I_loads 40923490
Core_3_L1I_load_hit 40919817
Core_3_L1I_load_miss 3673
Core_3_L1I_RFOs 0
Core_3_L1I_RFO_hit 0
Core_3_L1I_RFO_miss 0
Core_3_L1I_prefetches 0
Core_3_L1I_prefetch_hit 0
Core_3_L1I_prefetch_miss 0
Core_3_L1I_writebacks 0
Core_3_L1I_writeback_hit 0
Core_3_L1I_writeback_miss 0
Core_3_L1I_prefetch_requested 0
Core_3_L1I_prefetch_dropped 0
Core_3_L1I_prefetch_issued 0
Core_3_L1I_prefetch_filled 0
Core_3_L1I_prefetch_useful 0
Core_3_L1I_prefetch_useless 0
Core_3_L1I_prefetch_late 0
Core_3_L1I_average_miss_latency 207.88320

Core_3_L1I_rq_access 186385813
Core_3_L1I_rq_forward 0
Core_3_L1I_rq_merged 135534420
Core_3_L1I_rq_to_cache 50851393
Core_3_L1I_rq_full 0

Core_3_L1I_wq_access 0
Core_3_L1I_wq_forward 0
Core_3_L1I_wq_merged 0
Core_3_L1I_wq_to_cache 0
Core_3_L1I_wq_full 0

Core_3_L1I_pq_access 0
Core_3_L1I_pq_forward 0
Core_3_L1I_pq_merged 0
Core_3_L1I_pq_to_cache 0
Core_3_L1I_pq_full 0

Core_3_L1I_acc_epochs 186283
Core_3_L1I_acc_level_0 186283
Core_3_L1I_acc_level_1 0
Core_3_L1I_acc_level_2 0
Core_3_L1I_acc_level_3 0
Core_3_L1I_acc_level_4 0
Core_3_L1I_acc_level_5 0
Core_3_L1I_acc_level_6 0
Core_3_L1I_acc_level_7 0
Core_3_L1I_acc_level_8 0
Core_3_L1I_acc_level_9 0

Core_3_L2C_total_access 930716
Core_3_L2C_total_hit 557528
Core_3_L2C_total_miss 373188
Core_3_L2C_loads 376844
Core_3_L2C_load_hit 169906
Core_3_L2C_load_miss 206938
Core_3_L2C_RFOs 5088
Core_3_L2C_RFO_hit 2289
Core_3_L2C_RFO_miss 2799
Core_3_L2C_prefetches 354081
Core_3_L2C_prefetch_hit 191483
Core_3_L2C_prefetch_miss 162598
Core_3_L2C_writebacks 194703
Core_3_L2C_writeback_hit 193850
Core_3_L2C_writeback_miss 853
Core_3_L2C_prefetch_requested 2236874
Core_3_L2C_prefetch_dropped 0
Core_3_L2C_prefetch_issued 2236874
Core_3_L2C_prefetch_filled 261462
Core_3_L2C_prefetch_useful 208293
Core_3_L2C_prefetch_useless 52830
Core_3_L2C_prefetch_late 237
Core_3_L2C_average_miss_latency 196.35921

Core_3_L2C_rq_access 461100
Core_3_L2C_rq_forward 0
Core_3_L2C_rq_merged 0
Core_3_L2C_rq_to_cache 461097
Core_3_L2C_rq_full 0

Core_3_L2C_wq_access 229740
Core_3_L2C_wq_forward 3
Core_3_L2C_wq_merged 0
Core_3_L2C_wq_to_cache 229740
Core_3_L2C_wq_full 0

Core_3_L2C_pq_access 2236874
Core_3_L2C_pq_forward 0
Core_3_L2C_pq_merged 0
Core_3_L2C_pq_to_cache 2236874
Core_3_L2C_pq_full 0

Core_3_L2C_acc_epochs 186283
Core_3_L2C_acc_level_0 131464
Core_3_L2C_acc_level_1 15847
Core_3_L2C_acc_level_2 9846
Core_3_L2C_acc_level_3 5103
Core_3_L2C_acc_level_4 1485
Core_3_L2C_acc_level_5 7047
Core_3_L2C_acc_level_6 1565
Core_3_L2C_acc_level_7 3096
Core_3_L2C_acc_level_8 882
Core_3_L2C_acc_level_9 9948

Core_3_LLC_total_access 1721517
Core_3_LLC_total_hit 1285830
Core_3_LLC_total_miss 435687
Core_3_LLC_loads 206727
Core_3_LLC_load_hit 166232
Core_3_LLC_load_miss 40495
Core_3_LLC_RFOs 2799
Core_3_LLC_RFO_hit 1639
Core_3_LLC_RFO_miss 1160
Core_3_LLC_prefetches 1328663
Core_3_LLC_prefetch_hit 949854
Core_3_LLC_prefetch_miss 378809
Core_3_LLC_writebacks 183328
Core_3_LLC_writeback_hit 168105
Core_3_LLC_writeback_miss 15223
Core_3_LLC_prefetch_requested 0
Core_3_LLC_prefetch_dropped 0
Core_3_LLC_prefetch_issued 0
Core_3_LLC_prefetch_filled 3357974
Core_3_LLC_prefetch_useful 798928
Core_3_LLC_prefetch_useless 2505818
Core_3_LLC_prefetch_late 3048
Core_3_LLC_average_miss_latency 1537.51376

Core_3_LLC_rq_access 2043343
Core_3_LLC_rq_forward 0
Core_3_LLC_rq_merged 0
Core_3_LLC_rq_to_cache 2043339
Core_3_LLC_rq_full 0

Core_3_LLC_wq_access 1913354
Core_3_LLC_wq_forward 12
Core_3_LLC_wq_merged 0
Core_3_LLC_wq_to_cache 1913354
Core_3_LLC_wq_full 0

Core_3_LLC_pq_access 9709883
Core_3_LLC_pq_forward 0
Core_3_LLC_pq_merged 0
Core_3_LLC_pq_to_cache 9709873
Core_3_LLC_pq_full 0

Core_3_LLC_acc_epochs 1193937
Core_3_LLC_acc_level_0 995850
Core_3_LLC_acc_level_1 66900
Core_3_LLC_acc_level_2 42685
Core_3_LLC_acc_level_3 15502
Core_3_LLC_acc_level_4 5979
Core_3_LLC_acc_level_5 29065
Core_3_LLC_acc_level_6 4964
Core_3_LLC_acc_level_7 5779
Core_3_LLC_acc_level_8 2457
Core_3_LLC_acc_level_9 24756

Core_3_major_page_fault 0
Core_3_minor_page_fault 2150

[Bingo] PHT Access: 257283
[Bingo] PHT Hit PC+Addr: 33288
[Bingo] PHT Hit PC+Offs: 180783
[Bingo] PHT Miss: 43212
[Bingo] Prefetch PC+Addr: 0
[Bingo] Prefetch PC+Offs: 0
[Bingo] Useful PC+Addr: 0
[Bingo] Useful PC+Offs: 0
[Bingo] Useless PC+Addr: 0
[Bingo] Useless PC+Offs: 0
[Bingo] L1 Prefetch per Region: 0.00000
[Bingo] L2 Prefetch per Region: 4.94594
[Bingo] L3 Prefetch per Region: 9.93267
[Bingo] No Prefetch per Region: 17.12139
[Bingo] Number of Voters Mean: 8.00448
[Bingo] Number of Voters SD: 5.25759

[Bingo] PHT Access: 445068
[Bingo] PHT Hit PC+Addr: 40386
[Bingo] PHT Hit PC+Offs: 318714
[Bingo] PHT Miss: 85968
[Bingo] Prefetch PC+Addr: 0
[Bingo] Prefetch PC+Offs: 0
[Bingo] Useful PC+Addr: 0
[Bingo] Useful PC+Offs: 0
[Bingo] Useless PC+Addr: 0
[Bingo] Useless PC+Offs: 0
[Bingo] L1 Prefetch per Region: 0.00000
[Bingo] L2 Prefetch per Region: 2.40959
[Bingo] L3 Prefetch per Region: 9.84278
[Bingo] No Prefetch per Region: 19.74762
[Bingo] Number of Voters Mean: 6.66164
[Bingo] Number of Voters SD: 5.04702

[Bingo] PHT Access: 256941
[Bingo] PHT Hit PC+Addr: 33444
[Bingo] PHT Hit PC+Offs: 171445
[Bingo] PHT Miss: 52052
[Bingo] Prefetch PC+Addr: 0
[Bingo] Prefetch PC+Offs: 0
[Bingo] Useful PC+Addr: 0
[Bingo] Useful PC+Offs: 0
[Bingo] Useless PC+Addr: 0
[Bingo] Useless PC+Offs: 0
[Bingo] L1 Prefetch per Region: 0.00000
[Bingo] L2 Prefetch per Region: 5.14511
[Bingo] L3 Prefetch per Region: 10.39450
[Bingo] No Prefetch per Region: 16.46039
[Bingo] Number of Voters Mean: 7.40586
[Bingo] Number of Voters SD: 5.16234

[Bingo] PHT Access: 152093
[Bingo] PHT Hit PC+Addr: 21494
[Bingo] PHT Hit PC+Offs: 120898
[Bingo] PHT Miss: 9701
[Bingo] Prefetch PC+Addr: 0
[Bingo] Prefetch PC+Offs: 0
[Bingo] Useful PC+Addr: 0
[Bingo] Useful PC+Offs: 0
[Bingo] Useless PC+Addr: 0
[Bingo] Useless PC+Offs: 0
[Bingo] L1 Prefetch per Region: 0.00000
[Bingo] L2 Prefetch per Region: 3.07584
[Bingo] L3 Prefetch per Region: 13.87731
[Bingo] No Prefetch per Region: 15.04685
[Bingo] Number of Voters Mean: 11.08712
[Bingo] Number of Voters SD: 5.55136

Channel_0_RQ_row_buffer_hit 489097
Channel_0_RQ_row_buffer_miss 1089602
Channel_0_WQ_row_buffer_hit 32231
Channel_0_WQ_row_buffer_miss 533333
Channel_0_WQ_full 0
Channel_0_dbus_congested 1218064

Channel_1_RQ_row_buffer_hit 493046
Channel_1_RQ_row_buffer_miss 1075325
Channel_1_WQ_row_buffer_hit 32155
Channel_1_WQ_row_buffer_miss 530820
Channel_1_WQ_full 0
Channel_1_dbus_congested 1221409

avg_congested_cycle 11

DRAM_bw_pochs 4775746
DRAM_bw_level_0 4596070
DRAM_bw_level_1 114461
DRAM_bw_level_2 36838
DRAM_bw_level_3 28377
