*************************************************
   ChampSim Multicore Out-of-Order Simulator
   Last compiled: Mar 31 2025 20:14:32
*************************************************
parsing config file: /data3/config/spp_dev2.ini

trace_0 /data3/CLOUD9/traces/cloud9_phase4_core0.trace.xz
trace_1 /data3/CLOUD9/traces/cloud9_phase4_core1.trace.xz
trace_2 /data3/CLOUD9/traces/cloud9_phase4_core2.trace.xz
trace_3 /data3/CLOUD9/traces/cloud9_phase4_core3.trace.xz
adding L2C_PREFETCHER: SPP_dev2
Initialize SIGNATURE TABLE
ST_SET: 1
ST_WAY: 256
ST_TAG_BIT: 16
ST_TAG_MASK: ffff

Initialize PATTERN TABLE
PT_SET: 512
PT_WAY: 4
SIG_DELTA_BIT: 7
C_SIG_BIT: 4
C_DELTA_BIT: 4

Initialize PREFETCH FILTER
FILTER_SET: 1024
fill_threshold: 90
pf_threshold: 40

adding L2C_PREFETCHER: SPP_dev2
Initialize SIGNATURE TABLE
ST_SET: 1
ST_WAY: 256
ST_TAG_BIT: 16
ST_TAG_MASK: ffff

Initialize PATTERN TABLE
PT_SET: 512
PT_WAY: 4
SIG_DELTA_BIT: 7
C_SIG_BIT: 4
C_DELTA_BIT: 4

Initialize PREFETCH FILTER
FILTER_SET: 1024
fill_threshold: 90
pf_threshold: 40

adding L2C_PREFETCHER: SPP_dev2
Initialize SIGNATURE TABLE
ST_SET: 1
ST_WAY: 256
ST_TAG_BIT: 16
ST_TAG_MASK: ffff

Initialize PATTERN TABLE
PT_SET: 512
PT_WAY: 4
SIG_DELTA_BIT: 7
C_SIG_BIT: 4
C_DELTA_BIT: 4

Initialize PREFETCH FILTER
FILTER_SET: 1024
fill_threshold: 90
pf_threshold: 40

adding L2C_PREFETCHER: SPP_dev2
Initialize SIGNATURE TABLE
ST_SET: 1
ST_WAY: 256
ST_TAG_BIT: 16
ST_TAG_MASK: ffff

Initialize PATTERN TABLE
PT_SET: 512
PT_WAY: 4
SIG_DELTA_BIT: 7
C_SIG_BIT: 4
C_DELTA_BIT: 4

Initialize PREFETCH FILTER
FILTER_SET: 1024
fill_threshold: 90
pf_threshold: 40

Initialize SHIP state
warmup_instructions 50000000
simulation_instructions 150000000
champsim_seed 7350
measure_ipc 0
measure_ipc_epoch 1000
measure_dram_bw 1
measure_dram_bw_epoch 256
measure_cache_acc 1
measure_cache_acc_epoch 1024
l1d_perfect 0
l2c_perfect 0
llc_perfect 0
l1d_semi_perfect 0
l2c_semi_perfect 0
llc_semi_perfect 0
semi_perfect_cache_page_buffer_size 64

num_cpus 4
cpu_freq 4000
dram_io_freq 2400
page_size 4096
block_size 64
max_read_per_cycle 8
max_fill_per_cycle 1
dram_channels 2
log2_dram_channels 1
dram_ranks 1
dram_banks 8
dram_rows 65536
dram_columns 128
dram_row_size 8
dram_size 8192
dram_pages 2097152

fetch_width 6
decode_width 6
exec_width 4
lq_width 2
sq_width 2
retire_width 4
scheduler_size 128
branch_mispredict_penalty 20
rob_size 256
lq_size 72
sq_size 56
num_instr_destinations_sparc 4
num_instr_destinations 2
num_instr_sources 4

itlb_set 16
itlb_way 8
itlb_rq_size 16
itlb_wq_size 16
itlb_pq_size 0
itlb_mshr_size 8
itlb_latency 1

dtlb_set 16
dtlb_way 4
dtlb_rq_size 16
dtlb_wq_size 16
dtlb_pq_size 0
dtlb_mshr_size 8
dtlb_latency 1

stlb_set 128
stlb_way 12
stlb_rq_size 32
stlb_wq_size 32
stlb_pq_size 0
stlb_mshr_size 16
stlb_latency 8

l1i_size 32
l1i_set 64
l1i_way 8
l1i_rq_size 64
l1i_wq_size 64
l1i_pq_size 8
l1i_mshr_size 8
l1i_latency 1

l1d_size 32
l1d_set 64
l1d_way 8
l1d_rq_size 64
l1d_wq_size 64
l1d_pq_size 8
l1d_mshr_size 16
l1d_latency 4

l2c_size 256
l2c_set 512
l2c_way 8
l2c_rq_size 32
l2c_wq_size 32
l2c_pq_size 32
l2c_mshr_size 32
l2c_latency 10

llc_size 8192
llc_set 8192
llc_way 16
llc_rq_size 128
llc_wq_size 128
llc_pq_size 128
llc_mshr_size 256
llc_latency 20

dram_channel_width 8
dram_wq_size 64
dram_rq_size 64
tRP 15
tRCD 15
tCAS 12.5
dram_dbus_turn_around_time 30
dram_write_high_wm 56
dram_write_low_wm 48
min_dram_writes_per_switch 16
dram_mtps 2400
dram_dbus_return_time 13


Heartbeat CPU  3 instructions:    1000001 cycles:     392371 heartbeat IPC: 2.54861 cumulative IPC: 2.54861 (Simulation time: 0 hr 0 min 6 sec) 
Heartbeat CPU  2 instructions:    1000002 cycles:     425360 heartbeat IPC: 2.35095 cumulative IPC: 2.35095 (Simulation time: 0 hr 0 min 6 sec) 
Heartbeat CPU  1 instructions:    1000000 cycles:     451426 heartbeat IPC: 2.21520 cumulative IPC: 2.21520 (Simulation time: 0 hr 0 min 6 sec) 
Heartbeat CPU  0 instructions:    1000002 cycles:     500851 heartbeat IPC: 1.99661 cumulative IPC: 1.99661 (Simulation time: 0 hr 0 min 7 sec) 
Heartbeat CPU  3 instructions:    2000001 cycles:     777607 heartbeat IPC: 2.59581 cumulative IPC: 2.57199 (Simulation time: 0 hr 0 min 12 sec) 
Heartbeat CPU  2 instructions:    2000002 cycles:     813936 heartbeat IPC: 2.57350 cumulative IPC: 2.45720 (Simulation time: 0 hr 0 min 12 sec) 
Heartbeat CPU  1 instructions:    2000002 cycles:     880891 heartbeat IPC: 2.32848 cumulative IPC: 2.27043 (Simulation time: 0 hr 0 min 13 sec) 
Heartbeat CPU  0 instructions:    2000003 cycles:     930811 heartbeat IPC: 2.32580 cumulative IPC: 2.14867 (Simulation time: 0 hr 0 min 14 sec) 
Heartbeat CPU  3 instructions:    3000002 cycles:    1163291 heartbeat IPC: 2.59280 cumulative IPC: 2.57889 (Simulation time: 0 hr 0 min 18 sec) 
Heartbeat CPU  2 instructions:    3000002 cycles:    1201285 heartbeat IPC: 2.58165 cumulative IPC: 2.49733 (Simulation time: 0 hr 0 min 18 sec) 
Heartbeat CPU  1 instructions:    3000000 cycles:    1327241 heartbeat IPC: 2.24039 cumulative IPC: 2.26033 (Simulation time: 0 hr 0 min 20 sec) 
Heartbeat CPU  0 instructions:    3000000 cycles:    1367141 heartbeat IPC: 2.29184 cumulative IPC: 2.19436 (Simulation time: 0 hr 0 min 21 sec) 
Heartbeat CPU  3 instructions:    4000000 cycles:    1549523 heartbeat IPC: 2.58911 cumulative IPC: 2.58144 (Simulation time: 0 hr 0 min 24 sec) 
Heartbeat CPU  2 instructions:    4000000 cycles:    1580995 heartbeat IPC: 2.63358 cumulative IPC: 2.53005 (Simulation time: 0 hr 0 min 24 sec) 
Heartbeat CPU  1 instructions:    4000000 cycles:    1752079 heartbeat IPC: 2.35384 cumulative IPC: 2.28300 (Simulation time: 0 hr 0 min 27 sec) 
Heartbeat CPU  0 instructions:    4000000 cycles:    1799055 heartbeat IPC: 2.31528 cumulative IPC: 2.22339 (Simulation time: 0 hr 0 min 28 sec) 
Heartbeat CPU  3 instructions:    5000001 cycles:    1934753 heartbeat IPC: 2.59585 cumulative IPC: 2.58431 (Simulation time: 0 hr 0 min 30 sec) 
Heartbeat CPU  2 instructions:    5000000 cycles:    1970127 heartbeat IPC: 2.56982 cumulative IPC: 2.53791 (Simulation time: 0 hr 0 min 30 sec) 
Heartbeat CPU  0 instructions:    5000002 cycles:    2235457 heartbeat IPC: 2.29147 cumulative IPC: 2.23668 (Simulation time: 0 hr 0 min 34 sec) 
Heartbeat CPU  1 instructions:    5000003 cycles:    2249724 heartbeat IPC: 2.00947 cumulative IPC: 2.22250 (Simulation time: 0 hr 0 min 35 sec) 
Heartbeat CPU  3 instructions:    6000002 cycles:    2320083 heartbeat IPC: 2.59518 cumulative IPC: 2.58612 (Simulation time: 0 hr 0 min 36 sec) 
Heartbeat CPU  2 instructions:    6000003 cycles:    2350731 heartbeat IPC: 2.62741 cumulative IPC: 2.55240 (Simulation time: 0 hr 0 min 36 sec) 
Heartbeat CPU  1 instructions:    6000000 cycles:    2675932 heartbeat IPC: 2.34627 cumulative IPC: 2.24221 (Simulation time: 0 hr 0 min 41 sec) 
Heartbeat CPU  3 instructions:    7000003 cycles:    2708276 heartbeat IPC: 2.57604 cumulative IPC: 2.58467 (Simulation time: 0 hr 0 min 41 sec) 
Heartbeat CPU  2 instructions:    7000002 cycles:    2752481 heartbeat IPC: 2.48911 cumulative IPC: 2.54316 (Simulation time: 0 hr 0 min 42 sec) 
Heartbeat CPU  0 instructions:    6000000 cycles:    2836988 heartbeat IPC: 1.66242 cumulative IPC: 2.11492 (Simulation time: 0 hr 0 min 43 sec) 
Heartbeat CPU  3 instructions:    8000000 cycles:    3093357 heartbeat IPC: 2.59685 cumulative IPC: 2.58619 (Simulation time: 0 hr 0 min 47 sec) 
Heartbeat CPU  1 instructions:    7000003 cycles:    3097656 heartbeat IPC: 2.37123 cumulative IPC: 2.25977 (Simulation time: 0 hr 0 min 47 sec) 
Heartbeat CPU  2 instructions:    8000000 cycles:    3134204 heartbeat IPC: 2.61970 cumulative IPC: 2.55248 (Simulation time: 0 hr 0 min 48 sec) 
Heartbeat CPU  0 instructions:    7000003 cycles:    3281534 heartbeat IPC: 2.24949 cumulative IPC: 2.13315 (Simulation time: 0 hr 0 min 50 sec) 
Heartbeat CPU  3 instructions:    9000000 cycles:    3477638 heartbeat IPC: 2.60226 cumulative IPC: 2.58796 (Simulation time: 0 hr 0 min 54 sec) 
Heartbeat CPU  1 instructions:    8000000 cycles:    3517252 heartbeat IPC: 2.38324 cumulative IPC: 2.27450 (Simulation time: 0 hr 0 min 54 sec) 
Heartbeat CPU  2 instructions:    9000000 cycles:    3517550 heartbeat IPC: 2.60861 cumulative IPC: 2.55860 (Simulation time: 0 hr 0 min 54 sec) 
Heartbeat CPU  0 instructions:    8000000 cycles:    3718163 heartbeat IPC: 2.29027 cumulative IPC: 2.15160 (Simulation time: 0 hr 0 min 58 sec) 
Heartbeat CPU  3 instructions:   10000003 cycles:    3862449 heartbeat IPC: 2.59869 cumulative IPC: 2.58903 (Simulation time: 0 hr 1 min 0 sec) 
Heartbeat CPU  2 instructions:   10000001 cycles:    3895650 heartbeat IPC: 2.64481 cumulative IPC: 2.56697 (Simulation time: 0 hr 1 min 0 sec) 
Heartbeat CPU  1 instructions:    9000001 cycles:    3941284 heartbeat IPC: 2.35831 cumulative IPC: 2.28352 (Simulation time: 0 hr 1 min 1 sec) 
Heartbeat CPU  0 instructions:    9000003 cycles:    4163345 heartbeat IPC: 2.24628 cumulative IPC: 2.16172 (Simulation time: 0 hr 1 min 4 sec) 
Heartbeat CPU  3 instructions:   11000000 cycles:    4248332 heartbeat IPC: 2.59145 cumulative IPC: 2.58925 (Simulation time: 0 hr 1 min 5 sec) 
Heartbeat CPU  2 instructions:   11000003 cycles:    4279138 heartbeat IPC: 2.60765 cumulative IPC: 2.57061 (Simulation time: 0 hr 1 min 6 sec) 
Heartbeat CPU  1 instructions:   10000003 cycles:    4527780 heartbeat IPC: 1.70504 cumulative IPC: 2.20859 (Simulation time: 0 hr 1 min 10 sec) 
Heartbeat CPU  0 instructions:   10000001 cycles:    4621699 heartbeat IPC: 2.18172 cumulative IPC: 2.16371 (Simulation time: 0 hr 1 min 11 sec) 
Heartbeat CPU  3 instructions:   12000000 cycles:    4633446 heartbeat IPC: 2.59663 cumulative IPC: 2.58986 (Simulation time: 0 hr 1 min 11 sec) 
Heartbeat CPU  2 instructions:   12000000 cycles:    4657678 heartbeat IPC: 2.64172 cumulative IPC: 2.57639 (Simulation time: 0 hr 1 min 12 sec) 
Heartbeat CPU  1 instructions:   11000002 cycles:    4959244 heartbeat IPC: 2.31769 cumulative IPC: 2.21808 (Simulation time: 0 hr 1 min 16 sec) 
Heartbeat CPU  3 instructions:   13000000 cycles:    5019282 heartbeat IPC: 2.59177 cumulative IPC: 2.59001 (Simulation time: 0 hr 1 min 17 sec) 
Heartbeat CPU  2 instructions:   13000001 cycles:    5057752 heartbeat IPC: 2.49954 cumulative IPC: 2.57031 (Simulation time: 0 hr 1 min 18 sec) 
Heartbeat CPU  0 instructions:   11000000 cycles:    5098250 heartbeat IPC: 2.09841 cumulative IPC: 2.15760 (Simulation time: 0 hr 1 min 18 sec) 
Heartbeat CPU  1 instructions:   12000000 cycles:    5389001 heartbeat IPC: 2.32689 cumulative IPC: 2.22676 (Simulation time: 0 hr 1 min 23 sec) 
Heartbeat CPU  3 instructions:   14000001 cycles:    5404248 heartbeat IPC: 2.59763 cumulative IPC: 2.59055 (Simulation time: 0 hr 1 min 23 sec) 
Heartbeat CPU  2 instructions:   14000003 cycles:    5445534 heartbeat IPC: 2.57877 cumulative IPC: 2.57091 (Simulation time: 0 hr 1 min 24 sec) 
Heartbeat CPU  0 instructions:   12000000 cycles:    5542362 heartbeat IPC: 2.25168 cumulative IPC: 2.16514 (Simulation time: 0 hr 1 min 25 sec) 
Heartbeat CPU  3 instructions:   15000000 cycles:    5790221 heartbeat IPC: 2.59085 cumulative IPC: 2.59057 (Simulation time: 0 hr 1 min 29 sec) 
Heartbeat CPU  2 instructions:   15000000 cycles:    5828444 heartbeat IPC: 2.61157 cumulative IPC: 2.57359 (Simulation time: 0 hr 1 min 30 sec) 
Heartbeat CPU  1 instructions:   13000001 cycles:    5838821 heartbeat IPC: 2.22311 cumulative IPC: 2.22648 (Simulation time: 0 hr 1 min 30 sec) 
Heartbeat CPU  0 instructions:   13000000 cycles:    6009677 heartbeat IPC: 2.13988 cumulative IPC: 2.16318 (Simulation time: 0 hr 1 min 32 sec) 
Heartbeat CPU  3 instructions:   16000000 cycles:    6173538 heartbeat IPC: 2.60881 cumulative IPC: 2.59171 (Simulation time: 0 hr 1 min 35 sec) 
Heartbeat CPU  2 instructions:   16000000 cycles:    6210571 heartbeat IPC: 2.61693 cumulative IPC: 2.57625 (Simulation time: 0 hr 1 min 35 sec) 
Heartbeat CPU  1 instructions:   14000000 cycles:    6319775 heartbeat IPC: 2.07920 cumulative IPC: 2.21527 (Simulation time: 0 hr 1 min 37 sec) 
Heartbeat CPU  0 instructions:   14000003 cycles:    6444926 heartbeat IPC: 2.29754 cumulative IPC: 2.17225 (Simulation time: 0 hr 1 min 39 sec) 
Heartbeat CPU  3 instructions:   17000000 cycles:    6558669 heartbeat IPC: 2.59652 cumulative IPC: 2.59199 (Simulation time: 0 hr 1 min 40 sec) 
Heartbeat CPU  2 instructions:   17000003 cycles:    6596717 heartbeat IPC: 2.58970 cumulative IPC: 2.57704 (Simulation time: 0 hr 1 min 41 sec) 
Heartbeat CPU  1 instructions:   15000002 cycles:    6771535 heartbeat IPC: 2.21357 cumulative IPC: 2.21516 (Simulation time: 0 hr 1 min 44 sec) 
Heartbeat CPU  0 instructions:   15000000 cycles:    6880426 heartbeat IPC: 2.29620 cumulative IPC: 2.18010 (Simulation time: 0 hr 1 min 46 sec) 
Heartbeat CPU  3 instructions:   18000003 cycles:    6941813 heartbeat IPC: 2.60999 cumulative IPC: 2.59298 (Simulation time: 0 hr 1 min 47 sec) 
Heartbeat CPU  2 instructions:   18000002 cycles:    6978950 heartbeat IPC: 2.61620 cumulative IPC: 2.57918 (Simulation time: 0 hr 1 min 47 sec) 
Heartbeat CPU  1 instructions:   16000000 cycles:    7223701 heartbeat IPC: 2.21157 cumulative IPC: 2.21493 (Simulation time: 0 hr 1 min 51 sec) 
Heartbeat CPU  3 instructions:   19000003 cycles:    7324122 heartbeat IPC: 2.61569 cumulative IPC: 2.59417 (Simulation time: 0 hr 1 min 52 sec) 
Heartbeat CPU  2 instructions:   19000003 cycles:    7361176 heartbeat IPC: 2.61626 cumulative IPC: 2.58111 (Simulation time: 0 hr 1 min 53 sec) 
Heartbeat CPU  0 instructions:   16000000 cycles:    7380421 heartbeat IPC: 2.00002 cumulative IPC: 2.16790 (Simulation time: 0 hr 1 min 53 sec) 
Heartbeat CPU  1 instructions:   17000002 cycles:    7673114 heartbeat IPC: 2.22513 cumulative IPC: 2.21553 (Simulation time: 0 hr 1 min 58 sec) 
Heartbeat CPU  3 instructions:   20000000 cycles:    7704717 heartbeat IPC: 2.62746 cumulative IPC: 2.59581 (Simulation time: 0 hr 1 min 58 sec) 
Heartbeat CPU  2 instructions:   20000000 cycles:    7753620 heartbeat IPC: 2.54813 cumulative IPC: 2.57944 (Simulation time: 0 hr 1 min 59 sec) 
Heartbeat CPU  0 instructions:   17000001 cycles:    7808520 heartbeat IPC: 2.33591 cumulative IPC: 2.17711 (Simulation time: 0 hr 2 min 0 sec) 
Heartbeat CPU  3 instructions:   21000000 cycles:    8088584 heartbeat IPC: 2.60507 cumulative IPC: 2.59625 (Simulation time: 0 hr 2 min 5 sec) 
Heartbeat CPU  1 instructions:   18000001 cycles:    8099812 heartbeat IPC: 2.34358 cumulative IPC: 2.22227 (Simulation time: 0 hr 2 min 5 sec) 
Heartbeat CPU  2 instructions:   21000001 cycles:    8138348 heartbeat IPC: 2.59924 cumulative IPC: 2.58038 (Simulation time: 0 hr 2 min 5 sec) 
Heartbeat CPU  0 instructions:   18000000 cycles:    8247701 heartbeat IPC: 2.27696 cumulative IPC: 2.18243 (Simulation time: 0 hr 2 min 7 sec) 
Heartbeat CPU  3 instructions:   22000002 cycles:    8471220 heartbeat IPC: 2.61346 cumulative IPC: 2.59703 (Simulation time: 0 hr 2 min 11 sec) 
Heartbeat CPU  1 instructions:   19000000 cycles:    8518178 heartbeat IPC: 2.39025 cumulative IPC: 2.23052 (Simulation time: 0 hr 2 min 11 sec) 
Heartbeat CPU  2 instructions:   22000003 cycles:    8522181 heartbeat IPC: 2.60530 cumulative IPC: 2.58150 (Simulation time: 0 hr 2 min 11 sec) 
Heartbeat CPU  0 instructions:   19000000 cycles:    8681056 heartbeat IPC: 2.30758 cumulative IPC: 2.18867 (Simulation time: 0 hr 2 min 14 sec) 
Heartbeat CPU  3 instructions:   23000002 cycles:    8856451 heartbeat IPC: 2.59584 cumulative IPC: 2.59698 (Simulation time: 0 hr 2 min 17 sec) 
Heartbeat CPU  2 instructions:   23000001 cycles:    8905623 heartbeat IPC: 2.60795 cumulative IPC: 2.58264 (Simulation time: 0 hr 2 min 17 sec) 
Heartbeat CPU  1 instructions:   20000000 cycles:    9017260 heartbeat IPC: 2.00368 cumulative IPC: 2.21797 (Simulation time: 0 hr 2 min 19 sec) 
Heartbeat CPU  0 instructions:   20000000 cycles:    9210085 heartbeat IPC: 1.89026 cumulative IPC: 2.17153 (Simulation time: 0 hr 2 min 22 sec) 
Heartbeat CPU  3 instructions:   24000000 cycles:    9240454 heartbeat IPC: 2.60414 cumulative IPC: 2.59728 (Simulation time: 0 hr 2 min 22 sec) 
Heartbeat CPU  2 instructions:   24000000 cycles:    9293065 heartbeat IPC: 2.58103 cumulative IPC: 2.58257 (Simulation time: 0 hr 2 min 23 sec) 
Heartbeat CPU  1 instructions:   21000000 cycles:    9433813 heartbeat IPC: 2.40065 cumulative IPC: 2.22604 (Simulation time: 0 hr 2 min 25 sec) 
Heartbeat CPU  3 instructions:   25000001 cycles:    9626234 heartbeat IPC: 2.59215 cumulative IPC: 2.59707 (Simulation time: 0 hr 2 min 28 sec) 
Heartbeat CPU  2 instructions:   25000000 cycles:    9673488 heartbeat IPC: 2.62865 cumulative IPC: 2.58438 (Simulation time: 0 hr 2 min 29 sec) 
Heartbeat CPU  0 instructions:   21000000 cycles:    9719624 heartbeat IPC: 1.96256 cumulative IPC: 2.16058 (Simulation time: 0 hr 2 min 30 sec) 
Heartbeat CPU  1 instructions:   22000001 cycles:    9852380 heartbeat IPC: 2.38911 cumulative IPC: 2.23296 (Simulation time: 0 hr 2 min 32 sec) 
Heartbeat CPU  3 instructions:   26000000 cycles:   10011040 heartbeat IPC: 2.59871 cumulative IPC: 2.59713 (Simulation time: 0 hr 2 min 34 sec) 
Heartbeat CPU  2 instructions:   26000003 cycles:   10058864 heartbeat IPC: 2.59488 cumulative IPC: 2.58479 (Simulation time: 0 hr 2 min 35 sec) 
Heartbeat CPU  0 instructions:   22000002 cycles:   10155865 heartbeat IPC: 2.29232 cumulative IPC: 2.16624 (Simulation time: 0 hr 2 min 37 sec) 
Heartbeat CPU  1 instructions:   23000003 cycles:   10273711 heartbeat IPC: 2.37344 cumulative IPC: 2.23872 (Simulation time: 0 hr 2 min 39 sec) 
Heartbeat CPU  3 instructions:   27000000 cycles:   10395015 heartbeat IPC: 2.60434 cumulative IPC: 2.59740 (Simulation time: 0 hr 2 min 41 sec) 
Heartbeat CPU  2 instructions:   27000002 cycles:   10447300 heartbeat IPC: 2.57442 cumulative IPC: 2.58440 (Simulation time: 0 hr 2 min 41 sec) 
Heartbeat CPU  0 instructions:   23000002 cycles:   10583270 heartbeat IPC: 2.33970 cumulative IPC: 2.17324 (Simulation time: 0 hr 2 min 44 sec) 
Heartbeat CPU  3 instructions:   28000000 cycles:   10777157 heartbeat IPC: 2.61683 cumulative IPC: 2.59809 (Simulation time: 0 hr 2 min 46 sec) 
Heartbeat CPU  1 instructions:   24000000 cycles:   10818384 heartbeat IPC: 1.83596 cumulative IPC: 2.21845 (Simulation time: 0 hr 2 min 47 sec) 
Heartbeat CPU  2 instructions:   28000000 cycles:   10832241 heartbeat IPC: 2.59780 cumulative IPC: 2.58488 (Simulation time: 0 hr 2 min 47 sec) 
Heartbeat CPU  0 instructions:   24000000 cycles:   11045823 heartbeat IPC: 2.16191 cumulative IPC: 2.17277 (Simulation time: 0 hr 2 min 50 sec) 
Heartbeat CPU  3 instructions:   29000002 cycles:   11161404 heartbeat IPC: 2.60250 cumulative IPC: 2.59824 (Simulation time: 0 hr 2 min 52 sec) 
Heartbeat CPU  2 instructions:   29000003 cycles:   11216885 heartbeat IPC: 2.59981 cumulative IPC: 2.58539 (Simulation time: 0 hr 2 min 53 sec) 
Heartbeat CPU  1 instructions:   25000003 cycles:   11284355 heartbeat IPC: 2.14606 cumulative IPC: 2.21546 (Simulation time: 0 hr 2 min 54 sec) 
Heartbeat CPU  0 instructions:   25000003 cycles:   11503965 heartbeat IPC: 2.18274 cumulative IPC: 2.17316 (Simulation time: 0 hr 2 min 57 sec) 
Heartbeat CPU  3 instructions:   30000002 cycles:   11546440 heartbeat IPC: 2.59716 cumulative IPC: 2.59820 (Simulation time: 0 hr 2 min 58 sec) 
Heartbeat CPU  2 instructions:   30000000 cycles:   11598982 heartbeat IPC: 2.61713 cumulative IPC: 2.58643 (Simulation time: 0 hr 2 min 59 sec) 
Heartbeat CPU  1 instructions:   26000003 cycles:   11714408 heartbeat IPC: 2.32529 cumulative IPC: 2.21949 (Simulation time: 0 hr 3 min 1 sec) 
Heartbeat CPU  3 instructions:   31000000 cycles:   11932001 heartbeat IPC: 2.59362 cumulative IPC: 2.59806 (Simulation time: 0 hr 3 min 4 sec) 
Heartbeat CPU  0 instructions:   26000002 cycles:   11943449 heartbeat IPC: 2.27539 cumulative IPC: 2.17693 (Simulation time: 0 hr 3 min 4 sec) 
Heartbeat CPU  2 instructions:   31000000 cycles:   11982981 heartbeat IPC: 2.60417 cumulative IPC: 2.58700 (Simulation time: 0 hr 3 min 5 sec) 
Heartbeat CPU  1 instructions:   27000002 cycles:   12140939 heartbeat IPC: 2.34449 cumulative IPC: 2.22388 (Simulation time: 0 hr 3 min 7 sec) 
Heartbeat CPU  3 instructions:   32000000 cycles:   12319157 heartbeat IPC: 2.58294 cumulative IPC: 2.59758 (Simulation time: 0 hr 3 min 10 sec) 
Heartbeat CPU  2 instructions:   32000000 cycles:   12363242 heartbeat IPC: 2.62977 cumulative IPC: 2.58832 (Simulation time: 0 hr 3 min 11 sec) 
Heartbeat CPU  0 instructions:   27000002 cycles:   12394380 heartbeat IPC: 2.21763 cumulative IPC: 2.17841 (Simulation time: 0 hr 3 min 11 sec) 
Heartbeat CPU  1 instructions:   28000000 cycles:   12598204 heartbeat IPC: 2.18691 cumulative IPC: 2.22254 (Simulation time: 0 hr 3 min 14 sec) 
Heartbeat CPU  3 instructions:   33000000 cycles:   12705352 heartbeat IPC: 2.58937 cumulative IPC: 2.59733 (Simulation time: 0 hr 3 min 16 sec) 
Heartbeat CPU  2 instructions:   33000002 cycles:   12747789 heartbeat IPC: 2.60047 cumulative IPC: 2.58868 (Simulation time: 0 hr 3 min 17 sec) 
Heartbeat CPU  0 instructions:   28000000 cycles:   12859764 heartbeat IPC: 2.14876 cumulative IPC: 2.17733 (Simulation time: 0 hr 3 min 18 sec) 
Heartbeat CPU  1 instructions:   29000000 cycles:   13056823 heartbeat IPC: 2.18046 cumulative IPC: 2.22106 (Simulation time: 0 hr 3 min 21 sec) 
Heartbeat CPU  3 instructions:   34000001 cycles:   13090463 heartbeat IPC: 2.59666 cumulative IPC: 2.59731 (Simulation time: 0 hr 3 min 22 sec) 
Heartbeat CPU  2 instructions:   34000000 cycles:   13127519 heartbeat IPC: 2.63344 cumulative IPC: 2.58998 (Simulation time: 0 hr 3 min 22 sec) 
Heartbeat CPU  0 instructions:   29000002 cycles:   13295366 heartbeat IPC: 2.29568 cumulative IPC: 2.18121 (Simulation time: 0 hr 3 min 25 sec) 
Heartbeat CPU  3 instructions:   35000003 cycles:   13475355 heartbeat IPC: 2.59814 cumulative IPC: 2.59733 (Simulation time: 0 hr 3 min 28 sec) 
Heartbeat CPU  1 instructions:   30000002 cycles:   13487616 heartbeat IPC: 2.32131 cumulative IPC: 2.22426 (Simulation time: 0 hr 3 min 28 sec) 
Heartbeat CPU  2 instructions:   35000001 cycles:   13523469 heartbeat IPC: 2.52557 cumulative IPC: 2.58809 (Simulation time: 0 hr 3 min 29 sec) 
Heartbeat CPU  0 instructions:   30000000 cycles:   13769834 heartbeat IPC: 2.10762 cumulative IPC: 2.17868 (Simulation time: 0 hr 3 min 32 sec) 
Heartbeat CPU  3 instructions:   36000000 cycles:   13860928 heartbeat IPC: 2.59353 cumulative IPC: 2.59723 (Simulation time: 0 hr 3 min 34 sec) 
Heartbeat CPU  2 instructions:   36000000 cycles:   13901750 heartbeat IPC: 2.64353 cumulative IPC: 2.58960 (Simulation time: 0 hr 3 min 34 sec) 
Heartbeat CPU  1 instructions:   31000001 cycles:   13933701 heartbeat IPC: 2.24172 cumulative IPC: 2.22482 (Simulation time: 0 hr 3 min 35 sec) 
Heartbeat CPU  0 instructions:   31000001 cycles:   14224464 heartbeat IPC: 2.19959 cumulative IPC: 2.17934 (Simulation time: 0 hr 3 min 39 sec) 
Heartbeat CPU  3 instructions:   37000000 cycles:   14247489 heartbeat IPC: 2.58691 cumulative IPC: 2.59695 (Simulation time: 0 hr 3 min 40 sec) 
Heartbeat CPU  2 instructions:   37000000 cycles:   14295062 heartbeat IPC: 2.54251 cumulative IPC: 2.58831 (Simulation time: 0 hr 3 min 41 sec) 
Heartbeat CPU  1 instructions:   32000000 cycles:   14380967 heartbeat IPC: 2.23580 cumulative IPC: 2.22516 (Simulation time: 0 hr 3 min 42 sec) 
Heartbeat CPU  3 instructions:   38000003 cycles:   14633737 heartbeat IPC: 2.58902 cumulative IPC: 2.59674 (Simulation time: 0 hr 3 min 46 sec) 
Heartbeat CPU  0 instructions:   32000000 cycles:   14657738 heartbeat IPC: 2.30801 cumulative IPC: 2.18315 (Simulation time: 0 hr 3 min 46 sec) 
Heartbeat CPU  2 instructions:   38000002 cycles:   14679270 heartbeat IPC: 2.60276 cumulative IPC: 2.58868 (Simulation time: 0 hr 3 min 47 sec) 
Heartbeat CPU  1 instructions:   33000003 cycles:   14809656 heartbeat IPC: 2.33270 cumulative IPC: 2.22828 (Simulation time: 0 hr 3 min 49 sec) 
Heartbeat CPU  3 instructions:   39000003 cycles:   15017223 heartbeat IPC: 2.60766 cumulative IPC: 2.59702 (Simulation time: 0 hr 3 min 52 sec) 
Heartbeat CPU  2 instructions:   39000000 cycles:   15062116 heartbeat IPC: 2.61201 cumulative IPC: 2.58928 (Simulation time: 0 hr 3 min 53 sec) 
Heartbeat CPU  0 instructions:   33000003 cycles:   15090261 heartbeat IPC: 2.31202 cumulative IPC: 2.18684 (Simulation time: 0 hr 3 min 53 sec) 
Heartbeat CPU  1 instructions:   34000001 cycles:   15295165 heartbeat IPC: 2.05969 cumulative IPC: 2.22292 (Simulation time: 0 hr 3 min 56 sec) 
Heartbeat CPU  3 instructions:   40000000 cycles:   15403109 heartbeat IPC: 2.59143 cumulative IPC: 2.59688 (Simulation time: 0 hr 3 min 58 sec) 
Heartbeat CPU  2 instructions:   40000000 cycles:   15449690 heartbeat IPC: 2.58015 cumulative IPC: 2.58905 (Simulation time: 0 hr 3 min 59 sec) 
Heartbeat CPU  0 instructions:   34000003 cycles:   15527477 heartbeat IPC: 2.28720 cumulative IPC: 2.18967 (Simulation time: 0 hr 4 min 0 sec) 
Heartbeat CPU  1 instructions:   35000003 cycles:   15729451 heartbeat IPC: 2.30263 cumulative IPC: 2.22513 (Simulation time: 0 hr 4 min 3 sec) 
Heartbeat CPU  3 instructions:   41000002 cycles:   15789498 heartbeat IPC: 2.58807 cumulative IPC: 2.59666 (Simulation time: 0 hr 4 min 4 sec) 
Heartbeat CPU  2 instructions:   41000003 cycles:   15830546 heartbeat IPC: 2.62567 cumulative IPC: 2.58993 (Simulation time: 0 hr 4 min 5 sec) 
Heartbeat CPU  0 instructions:   35000003 cycles:   16135098 heartbeat IPC: 1.64576 cumulative IPC: 2.16918 (Simulation time: 0 hr 4 min 9 sec) 
Heartbeat CPU  1 instructions:   36000000 cycles:   16141997 heartbeat IPC: 2.42396 cumulative IPC: 2.23021 (Simulation time: 0 hr 4 min 9 sec) 
Heartbeat CPU  3 instructions:   42000002 cycles:   16176384 heartbeat IPC: 2.58474 cumulative IPC: 2.59638 (Simulation time: 0 hr 4 min 10 sec) 
Heartbeat CPU  2 instructions:   42000003 cycles:   16209301 heartbeat IPC: 2.64023 cumulative IPC: 2.59111 (Simulation time: 0 hr 4 min 10 sec) 
Heartbeat CPU  3 instructions:   43000000 cycles:   16562816 heartbeat IPC: 2.58777 cumulative IPC: 2.59618 (Simulation time: 0 hr 4 min 16 sec) 
Heartbeat CPU  1 instructions:   37000001 cycles:   16564884 heartbeat IPC: 2.36470 cumulative IPC: 2.23364 (Simulation time: 0 hr 4 min 16 sec) 
Heartbeat CPU  0 instructions:   36000000 cycles:   16572064 heartbeat IPC: 2.28850 cumulative IPC: 2.17233 (Simulation time: 0 hr 4 min 16 sec) 
Heartbeat CPU  2 instructions:   43000001 cycles:   16593256 heartbeat IPC: 2.60447 cumulative IPC: 2.59141 (Simulation time: 0 hr 4 min 17 sec) 
Heartbeat CPU  3 instructions:   44000000 cycles:   16948930 heartbeat IPC: 2.58991 cumulative IPC: 2.59603 (Simulation time: 0 hr 4 min 22 sec) 
Heartbeat CPU  2 instructions:   44000000 cycles:   16980114 heartbeat IPC: 2.58493 cumulative IPC: 2.59127 (Simulation time: 0 hr 4 min 23 sec) 
Heartbeat CPU  1 instructions:   38000002 cycles:   16986413 heartbeat IPC: 2.37232 cumulative IPC: 2.23708 (Simulation time: 0 hr 4 min 23 sec) 
Heartbeat CPU  0 instructions:   37000002 cycles:   17009408 heartbeat IPC: 2.28653 cumulative IPC: 2.17527 (Simulation time: 0 hr 4 min 23 sec) 
Heartbeat CPU  3 instructions:   45000002 cycles:   17336487 heartbeat IPC: 2.58027 cumulative IPC: 2.59568 (Simulation time: 0 hr 4 min 28 sec) 
Heartbeat CPU  2 instructions:   45000003 cycles:   17366660 heartbeat IPC: 2.58702 cumulative IPC: 2.59117 (Simulation time: 0 hr 4 min 29 sec) 
Heartbeat CPU  0 instructions:   38000003 cycles:   17440177 heartbeat IPC: 2.32143 cumulative IPC: 2.17888 (Simulation time: 0 hr 4 min 30 sec) 
Heartbeat CPU  1 instructions:   39000001 cycles:   17568365 heartbeat IPC: 1.71835 cumulative IPC: 2.21990 (Simulation time: 0 hr 4 min 31 sec) 
Heartbeat CPU  3 instructions:   46000000 cycles:   17722304 heartbeat IPC: 2.59190 cumulative IPC: 2.59560 (Simulation time: 0 hr 4 min 34 sec) 
Heartbeat CPU  2 instructions:   46000003 cycles:   17749410 heartbeat IPC: 2.61267 cumulative IPC: 2.59164 (Simulation time: 0 hr 4 min 34 sec) 
Heartbeat CPU  0 instructions:   39000002 cycles:   17902767 heartbeat IPC: 2.16174 cumulative IPC: 2.17843 (Simulation time: 0 hr 4 min 37 sec) 
Heartbeat CPU  1 instructions:   40000000 cycles:   17997768 heartbeat IPC: 2.32881 cumulative IPC: 2.22250 (Simulation time: 0 hr 4 min 38 sec) 
Heartbeat CPU  3 instructions:   47000003 cycles:   18109137 heartbeat IPC: 2.58510 cumulative IPC: 2.59538 (Simulation time: 0 hr 4 min 40 sec) 
Heartbeat CPU  2 instructions:   47000001 cycles:   18137136 heartbeat IPC: 2.57914 cumulative IPC: 2.59137 (Simulation time: 0 hr 4 min 40 sec) 
Heartbeat CPU  0 instructions:   40000000 cycles:   18343259 heartbeat IPC: 2.27018 cumulative IPC: 2.18064 (Simulation time: 0 hr 4 min 44 sec) 
Heartbeat CPU  1 instructions:   41000000 cycles:   18432055 heartbeat IPC: 2.30262 cumulative IPC: 2.22439 (Simulation time: 0 hr 4 min 45 sec) 
Heartbeat CPU  3 instructions:   48000000 cycles:   18495211 heartbeat IPC: 2.59017 cumulative IPC: 2.59527 (Simulation time: 0 hr 4 min 46 sec) 
Heartbeat CPU  2 instructions:   48000000 cycles:   18521226 heartbeat IPC: 2.60355 cumulative IPC: 2.59162 (Simulation time: 0 hr 4 min 46 sec) 
Heartbeat CPU  0 instructions:   41000000 cycles:   18781499 heartbeat IPC: 2.28185 cumulative IPC: 2.18300 (Simulation time: 0 hr 4 min 51 sec) 
Heartbeat CPU  1 instructions:   42000000 cycles:   18857673 heartbeat IPC: 2.34952 cumulative IPC: 2.22721 (Simulation time: 0 hr 4 min 52 sec) 
Heartbeat CPU  3 instructions:   49000002 cycles:   18882463 heartbeat IPC: 2.58230 cumulative IPC: 2.59500 (Simulation time: 0 hr 4 min 52 sec) 
Heartbeat CPU  2 instructions:   49000000 cycles:   18900459 heartbeat IPC: 2.63690 cumulative IPC: 2.59253 (Simulation time: 0 hr 4 min 52 sec) 
Heartbeat CPU  0 instructions:   42000001 cycles:   19228065 heartbeat IPC: 2.23931 cumulative IPC: 2.18431 (Simulation time: 0 hr 4 min 57 sec) 
Heartbeat CPU  3 instructions:   50000002 cycles:   19268779 heartbeat IPC: 2.58855 cumulative IPC: 2.59487 (Simulation time: 0 hr 4 min 58 sec) 
Heartbeat CPU  2 instructions:   50000003 cycles:   19276025 heartbeat IPC: 2.66266 cumulative IPC: 2.59390 (Simulation time: 0 hr 4 min 58 sec) 
Heartbeat CPU  1 instructions:   43000003 cycles:   19322164 heartbeat IPC: 2.15290 cumulative IPC: 2.22542 (Simulation time: 0 hr 4 min 59 sec) 
Heartbeat CPU  3 instructions:   51000000 cycles:   19654891 heartbeat IPC: 2.58992 cumulative IPC: 0.05088 (Simulation time: 0 hr 5 min 4 sec) 
Heartbeat CPU  2 instructions:   51000000 cycles:   19665950 heartbeat IPC: 2.56459 cumulative IPC: 0.05085 (Simulation time: 0 hr 5 min 4 sec) 
Heartbeat CPU  0 instructions:   43000002 cycles:   19689788 heartbeat IPC: 2.16580 cumulative IPC: 2.18387 (Simulation time: 0 hr 5 min 4 sec) 
Heartbeat CPU  1 instructions:   44000000 cycles:   19767133 heartbeat IPC: 2.24734 cumulative IPC: 2.22592 (Simulation time: 0 hr 5 min 6 sec) 
Heartbeat CPU  3 instructions:   52000000 cycles:   20041368 heartbeat IPC: 2.58748 cumulative IPC: 0.09979 (Simulation time: 0 hr 5 min 10 sec) 
Heartbeat CPU  2 instructions:   52000000 cycles:   20072048 heartbeat IPC: 2.46246 cumulative IPC: 0.09964 (Simulation time: 0 hr 5 min 10 sec) 
Heartbeat CPU  0 instructions:   44000000 cycles:   20127158 heartbeat IPC: 2.28639 cumulative IPC: 2.18610 (Simulation time: 0 hr 5 min 11 sec) 
Heartbeat CPU  1 instructions:   45000001 cycles:   20200656 heartbeat IPC: 2.30668 cumulative IPC: 2.22765 (Simulation time: 0 hr 5 min 12 sec) 
Heartbeat CPU  3 instructions:   53000000 cycles:   20428601 heartbeat IPC: 2.58242 cumulative IPC: 0.14685 (Simulation time: 0 hr 5 min 16 sec) 
Heartbeat CPU  2 instructions:   53000003 cycles:   20475279 heartbeat IPC: 2.47998 cumulative IPC: 0.14652 (Simulation time: 0 hr 5 min 17 sec) 
Heartbeat CPU  0 instructions:   45000000 cycles:   20624174 heartbeat IPC: 2.01201 cumulative IPC: 2.18191 (Simulation time: 0 hr 5 min 19 sec) 
Heartbeat CPU  1 instructions:   46000002 cycles:   20645767 heartbeat IPC: 2.24663 cumulative IPC: 2.22806 (Simulation time: 0 hr 5 min 19 sec) 
Heartbeat CPU  3 instructions:   54000001 cycles:   20808071 heartbeat IPC: 2.63526 cumulative IPC: 0.19223 (Simulation time: 0 hr 5 min 22 sec) 
Heartbeat CPU  2 instructions:   54000000 cycles:   20864651 heartbeat IPC: 2.56823 cumulative IPC: 0.19171 (Simulation time: 0 hr 5 min 23 sec) 
Heartbeat CPU  0 instructions:   46000000 cycles:   21057229 heartbeat IPC: 2.30918 cumulative IPC: 2.18452 (Simulation time: 0 hr 5 min 26 sec) 
Heartbeat CPU  1 instructions:   47000001 cycles:   21094087 heartbeat IPC: 2.23055 cumulative IPC: 2.22811 (Simulation time: 0 hr 5 min 27 sec) 
Heartbeat CPU  3 instructions:   55000001 cycles:   21193464 heartbeat IPC: 2.59475 cumulative IPC: 0.23592 (Simulation time: 0 hr 5 min 28 sec) 
Heartbeat CPU  2 instructions:   55000002 cycles:   21245793 heartbeat IPC: 2.62370 cumulative IPC: 0.23534 (Simulation time: 0 hr 5 min 29 sec) 
Heartbeat CPU  0 instructions:   47000001 cycles:   21502334 heartbeat IPC: 2.24666 cumulative IPC: 2.18581 (Simulation time: 0 hr 5 min 33 sec) 
Heartbeat CPU  1 instructions:   48000000 cycles:   21523493 heartbeat IPC: 2.32880 cumulative IPC: 2.23012 (Simulation time: 0 hr 5 min 34 sec) 
Heartbeat CPU  3 instructions:   56000000 cycles:   21580615 heartbeat IPC: 2.58297 cumulative IPC: 0.27803 (Simulation time: 0 hr 5 min 35 sec) 
Heartbeat CPU  2 instructions:   56000000 cycles:   21627402 heartbeat IPC: 2.62048 cumulative IPC: 0.27743 (Simulation time: 0 hr 5 min 35 sec) 
Heartbeat CPU  0 instructions:   48000000 cycles:   21933680 heartbeat IPC: 2.31832 cumulative IPC: 2.18842 (Simulation time: 0 hr 5 min 40 sec) 
Heartbeat CPU  3 instructions:   57000001 cycles:   21969305 heartbeat IPC: 2.57275 cumulative IPC: 0.31863 (Simulation time: 0 hr 5 min 41 sec) 
Heartbeat CPU  1 instructions:   49000001 cycles:   22011825 heartbeat IPC: 2.04779 cumulative IPC: 2.22608 (Simulation time: 0 hr 5 min 41 sec) 
Heartbeat CPU  2 instructions:   57000003 cycles:   22018300 heartbeat IPC: 2.55822 cumulative IPC: 0.31792 (Simulation time: 0 hr 5 min 41 sec) 
Heartbeat CPU  3 instructions:   58000000 cycles:   22356406 heartbeat IPC: 2.58330 cumulative IPC: 0.35784 (Simulation time: 0 hr 5 min 47 sec) 
Heartbeat CPU  0 instructions:   49000000 cycles:   22371367 heartbeat IPC: 2.28474 cumulative IPC: 2.19030 (Simulation time: 0 hr 5 min 47 sec) 
Heartbeat CPU  2 instructions:   58000003 cycles:   22400992 heartbeat IPC: 2.61307 cumulative IPC: 0.35713 (Simulation time: 0 hr 5 min 48 sec) 
Heartbeat CPU  1 instructions:   50000002 cycles:   22440740 heartbeat IPC: 2.33147 cumulative IPC: 2.22809 (Simulation time: 0 hr 5 min 48 sec) 
Heartbeat CPU  3 instructions:   59000000 cycles:   22742070 heartbeat IPC: 2.59293 cumulative IPC: 0.39574 (Simulation time: 0 hr 5 min 53 sec) 
Heartbeat CPU  2 instructions:   59000002 cycles:   22783188 heartbeat IPC: 2.61646 cumulative IPC: 0.39503 (Simulation time: 0 hr 5 min 53 sec) 
Heartbeat CPU  1 instructions:   51000002 cycles:   22856842 heartbeat IPC: 2.40326 cumulative IPC: 0.04375 (Simulation time: 0 hr 5 min 54 sec) 
Heartbeat CPU  0 instructions:   50000002 cycles:   22975066 heartbeat IPC: 1.65646 cumulative IPC: 2.17627 (Simulation time: 0 hr 5 min 56 sec) 

Warmup complete CPU  0 instructions:   50000002 cycles:   22975066 (Simulation time: 0 hr 5 min 56 sec) 
Warmup complete CPU  1 instructions:   51282513 cycles:   22975065 (Simulation time: 0 hr 5 min 56 sec) 
Warmup complete CPU  2 instructions:   59502151 cycles:   22975065 (Simulation time: 0 hr 5 min 56 sec) 
Warmup complete CPU  3 instructions:   59606798 cycles:   22975065 (Simulation time: 0 hr 5 min 56 sec) 

Heartbeat CPU  3 instructions:   60000000 cycles:   25546431 heartbeat IPC: 0.35659 cumulative IPC: 0.15292 (Simulation time: 0 hr 6 min 0 sec) 
Heartbeat CPU  2 instructions:   60000000 cycles:   25671824 heartbeat IPC: 0.34618 cumulative IPC: 0.18461 (Simulation time: 0 hr 6 min 0 sec) 
Heartbeat CPU  1 instructions:   52000000 cycles:   28907663 heartbeat IPC: 0.16527 cumulative IPC: 0.12094 (Simulation time: 0 hr 6 min 5 sec) 
Heartbeat CPU  2 instructions:   61000000 cycles:   31366877 heartbeat IPC: 0.17559 cumulative IPC: 0.17849 (Simulation time: 0 hr 6 min 8 sec) 
Heartbeat CPU  0 instructions:   51000003 cycles:   31465292 heartbeat IPC: 0.11778 cumulative IPC: 0.11778 (Simulation time: 0 hr 6 min 9 sec) 
Heartbeat CPU  3 instructions:   61000003 cycles:   32086568 heartbeat IPC: 0.15290 cumulative IPC: 0.15291 (Simulation time: 0 hr 6 min 10 sec) 
Heartbeat CPU  2 instructions:   62000002 cycles:   36989910 heartbeat IPC: 0.17784 cumulative IPC: 0.17823 (Simulation time: 0 hr 6 min 17 sec) 
Heartbeat CPU  1 instructions:   53000003 cycles:   37166584 heartbeat IPC: 0.12108 cumulative IPC: 0.12102 (Simulation time: 0 hr 6 min 17 sec) 
Heartbeat CPU  3 instructions:   62000001 cycles:   38629894 heartbeat IPC: 0.15283 cumulative IPC: 0.15287 (Simulation time: 0 hr 6 min 19 sec) 
Heartbeat CPU  0 instructions:   52000000 cycles:   39959579 heartbeat IPC: 0.11773 cumulative IPC: 0.11775 (Simulation time: 0 hr 6 min 21 sec) 
Heartbeat CPU  2 instructions:   63000003 cycles:   42703026 heartbeat IPC: 0.17504 cumulative IPC: 0.17730 (Simulation time: 0 hr 6 min 25 sec) 
Heartbeat CPU  3 instructions:   63000000 cycles:   45187234 heartbeat IPC: 0.15250 cumulative IPC: 0.15276 (Simulation time: 0 hr 6 min 28 sec) 
Heartbeat CPU  1 instructions:   54000000 cycles:   45625197 heartbeat IPC: 0.11822 cumulative IPC: 0.11998 (Simulation time: 0 hr 6 min 29 sec) 
Heartbeat CPU  0 instructions:   53000001 cycles:   46792436 heartbeat IPC: 0.14635 cumulative IPC: 0.12596 (Simulation time: 0 hr 6 min 31 sec) 
Heartbeat CPU  2 instructions:   64000000 cycles:   48375987 heartbeat IPC: 0.17627 cumulative IPC: 0.17707 (Simulation time: 0 hr 6 min 34 sec) 
Heartbeat CPU  0 instructions:   54000001 cycles:   51258316 heartbeat IPC: 0.22392 cumulative IPC: 0.14143 (Simulation time: 0 hr 6 min 39 sec) 
Heartbeat CPU  3 instructions:   64000000 cycles:   51744115 heartbeat IPC: 0.15251 cumulative IPC: 0.15271 (Simulation time: 0 hr 6 min 39 sec) 
Heartbeat CPU  1 instructions:   55000002 cycles:   53880949 heartbeat IPC: 0.12113 cumulative IPC: 0.12028 (Simulation time: 0 hr 6 min 43 sec) 
Heartbeat CPU  2 instructions:   65000003 cycles:   54133137 heartbeat IPC: 0.17370 cumulative IPC: 0.17645 (Simulation time: 0 hr 6 min 43 sec) 
Heartbeat CPU  0 instructions:   55000003 cycles:   57762559 heartbeat IPC: 0.15375 cumulative IPC: 0.14373 (Simulation time: 0 hr 6 min 48 sec) 
Heartbeat CPU  3 instructions:   65000002 cycles:   58285480 heartbeat IPC: 0.15287 cumulative IPC: 0.15274 (Simulation time: 0 hr 6 min 49 sec) 
Heartbeat CPU  2 instructions:   66000001 cycles:   59949534 heartbeat IPC: 0.17193 cumulative IPC: 0.17574 (Simulation time: 0 hr 6 min 51 sec) 
Heartbeat CPU  1 instructions:   56000000 cycles:   62224775 heartbeat IPC: 0.11985 cumulative IPC: 0.12019 (Simulation time: 0 hr 6 min 55 sec) 
Heartbeat CPU  3 instructions:   66000003 cycles:   64823511 heartbeat IPC: 0.15295 cumulative IPC: 0.15277 (Simulation time: 0 hr 6 min 58 sec) 
Heartbeat CPU  2 instructions:   67000003 cycles:   65488004 heartbeat IPC: 0.18056 cumulative IPC: 0.17637 (Simulation time: 0 hr 6 min 59 sec) 
Heartbeat CPU  0 instructions:   56000000 cycles:   65873460 heartbeat IPC: 0.12329 cumulative IPC: 0.13987 (Simulation time: 0 hr 7 min 0 sec) 
Heartbeat CPU  1 instructions:   57000001 cycles:   69214855 heartbeat IPC: 0.14306 cumulative IPC: 0.12365 (Simulation time: 0 hr 7 min 5 sec) 
Heartbeat CPU  2 instructions:   68000000 cycles:   70965290 heartbeat IPC: 0.18257 cumulative IPC: 0.17707 (Simulation time: 0 hr 7 min 8 sec) 
Heartbeat CPU  3 instructions:   67000002 cycles:   71351734 heartbeat IPC: 0.15318 cumulative IPC: 0.15283 (Simulation time: 0 hr 7 min 9 sec) 
Heartbeat CPU  1 instructions:   58000001 cycles:   73762288 heartbeat IPC: 0.21990 cumulative IPC: 0.13227 (Simulation time: 0 hr 7 min 13 sec) 
Heartbeat CPU  0 instructions:   57000001 cycles:   74203103 heartbeat IPC: 0.12005 cumulative IPC: 0.13664 (Simulation time: 0 hr 7 min 13 sec) 
Heartbeat CPU  2 instructions:   69000002 cycles:   76749227 heartbeat IPC: 0.17289 cumulative IPC: 0.17662 (Simulation time: 0 hr 7 min 17 sec) 
Heartbeat CPU  3 instructions:   68000000 cycles:   77906657 heartbeat IPC: 0.15256 cumulative IPC: 0.15279 (Simulation time: 0 hr 7 min 19 sec) 
Heartbeat CPU  1 instructions:   59000003 cycles:   80064608 heartbeat IPC: 0.15867 cumulative IPC: 0.13518 (Simulation time: 0 hr 7 min 22 sec) 
Heartbeat CPU  2 instructions:   70000001 cycles:   82377129 heartbeat IPC: 0.17769 cumulative IPC: 0.17673 (Simulation time: 0 hr 7 min 26 sec) 
Heartbeat CPU  0 instructions:   58000001 cycles:   82477686 heartbeat IPC: 0.12085 cumulative IPC: 0.13445 (Simulation time: 0 hr 7 min 26 sec) 
Heartbeat CPU  3 instructions:   69000003 cycles:   84459304 heartbeat IPC: 0.15261 cumulative IPC: 0.15277 (Simulation time: 0 hr 7 min 29 sec) 
Heartbeat CPU  2 instructions:   71000003 cycles:   87811900 heartbeat IPC: 0.18400 cumulative IPC: 0.17734 (Simulation time: 0 hr 7 min 33 sec) 
Heartbeat CPU  1 instructions:   60000000 cycles:   88227981 heartbeat IPC: 0.12250 cumulative IPC: 0.13360 (Simulation time: 0 hr 7 min 34 sec) 
Heartbeat CPU  0 instructions:   59000003 cycles:   90841268 heartbeat IPC: 0.11957 cumulative IPC: 0.13261 (Simulation time: 0 hr 7 min 38 sec) 
Heartbeat CPU  3 instructions:   70000003 cycles:   91015669 heartbeat IPC: 0.15252 cumulative IPC: 0.15275 (Simulation time: 0 hr 7 min 38 sec) 
Heartbeat CPU  2 instructions:   72000000 cycles:   93536872 heartbeat IPC: 0.17467 cumulative IPC: 0.17712 (Simulation time: 0 hr 7 min 42 sec) 
Heartbeat CPU  1 instructions:   61000002 cycles:   96430725 heartbeat IPC: 0.12191 cumulative IPC: 0.13229 (Simulation time: 0 hr 7 min 46 sec) 
Heartbeat CPU  3 instructions:   71000001 cycles:   97566685 heartbeat IPC: 0.15265 cumulative IPC: 0.15274 (Simulation time: 0 hr 7 min 48 sec) 
Heartbeat CPU  2 instructions:   73000002 cycles:   98962340 heartbeat IPC: 0.18432 cumulative IPC: 0.17763 (Simulation time: 0 hr 7 min 50 sec) 
Heartbeat CPU  0 instructions:   60000000 cycles:   99131701 heartbeat IPC: 0.12062 cumulative IPC: 0.13131 (Simulation time: 0 hr 7 min 50 sec) 
Heartbeat CPU  3 instructions:   72000000 cycles:  104131902 heartbeat IPC: 0.15232 cumulative IPC: 0.15271 (Simulation time: 0 hr 7 min 57 sec) 
Heartbeat CPU  2 instructions:   74000003 cycles:  104594050 heartbeat IPC: 0.17757 cumulative IPC: 0.17763 (Simulation time: 0 hr 7 min 58 sec) 
Heartbeat CPU  1 instructions:   62000002 cycles:  104622801 heartbeat IPC: 0.12207 cumulative IPC: 0.13126 (Simulation time: 0 hr 7 min 58 sec) 
Heartbeat CPU  0 instructions:   61000000 cycles:  107504812 heartbeat IPC: 0.11943 cumulative IPC: 0.13013 (Simulation time: 0 hr 8 min 2 sec) 
Heartbeat CPU  2 instructions:   75000002 cycles:  110584126 heartbeat IPC: 0.16694 cumulative IPC: 0.17690 (Simulation time: 0 hr 8 min 6 sec) 
Heartbeat CPU  3 instructions:   73000000 cycles:  110697141 heartbeat IPC: 0.15232 cumulative IPC: 0.15268 (Simulation time: 0 hr 8 min 6 sec) 
Heartbeat CPU  1 instructions:   63000001 cycles:  112873806 heartbeat IPC: 0.12120 cumulative IPC: 0.13034 (Simulation time: 0 hr 8 min 9 sec) 
Heartbeat CPU  0 instructions:   62000003 cycles:  115884545 heartbeat IPC: 0.11934 cumulative IPC: 0.12916 (Simulation time: 0 hr 8 min 14 sec) 
Heartbeat CPU  2 instructions:   76000000 cycles:  116481249 heartbeat IPC: 0.16957 cumulative IPC: 0.17644 (Simulation time: 0 hr 8 min 15 sec) 
Heartbeat CPU  3 instructions:   74000000 cycles:  117255353 heartbeat IPC: 0.15248 cumulative IPC: 0.15266 (Simulation time: 0 hr 8 min 16 sec) 
Heartbeat CPU  1 instructions:   64000000 cycles:  121144886 heartbeat IPC: 0.12090 cumulative IPC: 0.12955 (Simulation time: 0 hr 8 min 21 sec) 
Heartbeat CPU  2 instructions:   77000002 cycles:  122054539 heartbeat IPC: 0.17943 cumulative IPC: 0.17660 (Simulation time: 0 hr 8 min 23 sec) 
Heartbeat CPU  3 instructions:   75000000 cycles:  123872192 heartbeat IPC: 0.15113 cumulative IPC: 0.15256 (Simulation time: 0 hr 8 min 25 sec) 
Heartbeat CPU  0 instructions:   63000003 cycles:  124256999 heartbeat IPC: 0.11944 cumulative IPC: 0.12835 (Simulation time: 0 hr 8 min 26 sec) 
Heartbeat CPU  2 instructions:   78000000 cycles:  127504633 heartbeat IPC: 0.18348 cumulative IPC: 0.17696 (Simulation time: 0 hr 8 min 31 sec) 
Heartbeat CPU  1 instructions:   65000002 cycles:  129356017 heartbeat IPC: 0.12179 cumulative IPC: 0.12895 (Simulation time: 0 hr 8 min 33 sec) 
Heartbeat CPU  3 instructions:   76000000 cycles:  130489814 heartbeat IPC: 0.15111 cumulative IPC: 0.15247 (Simulation time: 0 hr 8 min 35 sec) 
Heartbeat CPU  0 instructions:   64000000 cycles:  132685453 heartbeat IPC: 0.11865 cumulative IPC: 0.12761 (Simulation time: 0 hr 8 min 38 sec) 
Heartbeat CPU  2 instructions:   79000001 cycles:  132988739 heartbeat IPC: 0.18235 cumulative IPC: 0.17723 (Simulation time: 0 hr 8 min 39 sec) 
Heartbeat CPU  3 instructions:   77000000 cycles:  137107341 heartbeat IPC: 0.15111 cumulative IPC: 0.15240 (Simulation time: 0 hr 8 min 44 sec) 
Heartbeat CPU  1 instructions:   66000003 cycles:  137581437 heartbeat IPC: 0.12157 cumulative IPC: 0.12842 (Simulation time: 0 hr 8 min 45 sec) 
Heartbeat CPU  2 instructions:   80000000 cycles:  138428308 heartbeat IPC: 0.18384 cumulative IPC: 0.17754 (Simulation time: 0 hr 8 min 46 sec) 
Heartbeat CPU  0 instructions:   65000002 cycles:  141333764 heartbeat IPC: 0.11563 cumulative IPC: 0.12673 (Simulation time: 0 hr 8 min 51 sec) 
Heartbeat CPU  3 instructions:   78000002 cycles:  143766930 heartbeat IPC: 0.15016 cumulative IPC: 0.15227 (Simulation time: 0 hr 8 min 54 sec) 
Heartbeat CPU  2 instructions:   81000000 cycles:  144037894 heartbeat IPC: 0.17827 cumulative IPC: 0.17758 (Simulation time: 0 hr 8 min 54 sec) 
Heartbeat CPU  1 instructions:   67000000 cycles:  145891103 heartbeat IPC: 0.12034 cumulative IPC: 0.12787 (Simulation time: 0 hr 8 min 57 sec) 
Heartbeat CPU  2 instructions:   82000003 cycles:  149540686 heartbeat IPC: 0.18173 cumulative IPC: 0.17776 (Simulation time: 0 hr 9 min 2 sec) 
Heartbeat CPU  0 instructions:   66000003 cycles:  149807153 heartbeat IPC: 0.11802 cumulative IPC: 0.12615 (Simulation time: 0 hr 9 min 3 sec) 
Heartbeat CPU  3 instructions:   79000000 cycles:  150456236 heartbeat IPC: 0.14949 cumulative IPC: 0.15213 (Simulation time: 0 hr 9 min 4 sec) 
Heartbeat CPU  1 instructions:   68000000 cycles:  154127560 heartbeat IPC: 0.12141 cumulative IPC: 0.12747 (Simulation time: 0 hr 9 min 9 sec) 
Heartbeat CPU  2 instructions:   83000001 cycles:  155097464 heartbeat IPC: 0.17996 cumulative IPC: 0.17785 (Simulation time: 0 hr 9 min 10 sec) 
Heartbeat CPU  3 instructions:   80000000 cycles:  157118196 heartbeat IPC: 0.15011 cumulative IPC: 0.15203 (Simulation time: 0 hr 9 min 13 sec) 
Heartbeat CPU  0 instructions:   67000002 cycles:  158318359 heartbeat IPC: 0.11749 cumulative IPC: 0.12561 (Simulation time: 0 hr 9 min 15 sec) 
Heartbeat CPU  2 instructions:   84000000 cycles:  160705071 heartbeat IPC: 0.17833 cumulative IPC: 0.17787 (Simulation time: 0 hr 9 min 18 sec) 
Heartbeat CPU  1 instructions:   69000000 cycles:  162600328 heartbeat IPC: 0.11803 cumulative IPC: 0.12689 (Simulation time: 0 hr 9 min 21 sec) 
Heartbeat CPU  3 instructions:   81000003 cycles:  163752168 heartbeat IPC: 0.15074 cumulative IPC: 0.15197 (Simulation time: 0 hr 9 min 23 sec) 
Heartbeat CPU  0 instructions:   68000000 cycles:  163975368 heartbeat IPC: 0.17677 cumulative IPC: 0.12766 (Simulation time: 0 hr 9 min 24 sec) 
Heartbeat CPU  2 instructions:   85000001 cycles:  166222450 heartbeat IPC: 0.18125 cumulative IPC: 0.17800 (Simulation time: 0 hr 9 min 28 sec) 
Heartbeat CPU  0 instructions:   69000000 cycles:  168805029 heartbeat IPC: 0.20705 cumulative IPC: 0.13029 (Simulation time: 0 hr 9 min 32 sec) 
Heartbeat CPU  3 instructions:   82000001 cycles:  170400457 heartbeat IPC: 0.15041 cumulative IPC: 0.15190 (Simulation time: 0 hr 9 min 34 sec) 
Heartbeat CPU  1 instructions:   70000001 cycles:  170873391 heartbeat IPC: 0.12087 cumulative IPC: 0.12656 (Simulation time: 0 hr 9 min 35 sec) 
Heartbeat CPU  2 instructions:   86000003 cycles:  171983323 heartbeat IPC: 0.17359 cumulative IPC: 0.17783 (Simulation time: 0 hr 9 min 36 sec) 
Heartbeat CPU  0 instructions:   70000003 cycles:  176235381 heartbeat IPC: 0.13458 cumulative IPC: 0.13050 (Simulation time: 0 hr 9 min 42 sec) 
Heartbeat CPU  3 instructions:   83000001 cycles:  177030955 heartbeat IPC: 0.15082 cumulative IPC: 0.15185 (Simulation time: 0 hr 9 min 44 sec) 
Heartbeat CPU  2 instructions:   87000003 cycles:  177546419 heartbeat IPC: 0.17976 cumulative IPC: 0.17790 (Simulation time: 0 hr 9 min 44 sec) 
Heartbeat CPU  1 instructions:   71000002 cycles:  179253893 heartbeat IPC: 0.11932 cumulative IPC: 0.12617 (Simulation time: 0 hr 9 min 47 sec) 
Heartbeat CPU  2 instructions:   88000000 cycles:  182780134 heartbeat IPC: 0.19107 cumulative IPC: 0.17833 (Simulation time: 0 hr 9 min 52 sec) 
Heartbeat CPU  3 instructions:   84000000 cycles:  183694314 heartbeat IPC: 0.15007 cumulative IPC: 0.15178 (Simulation time: 0 hr 9 min 53 sec) 
Heartbeat CPU  0 instructions:   71000002 cycles:  184615601 heartbeat IPC: 0.11933 cumulative IPC: 0.12992 (Simulation time: 0 hr 9 min 55 sec) 
Heartbeat CPU  1 instructions:   72000000 cycles:  185339239 heartbeat IPC: 0.16433 cumulative IPC: 0.12760 (Simulation time: 0 hr 9 min 56 sec) 
Heartbeat CPU  2 instructions:   89000002 cycles:  188450528 heartbeat IPC: 0.17635 cumulative IPC: 0.17826 (Simulation time: 0 hr 10 min 1 sec) 
Heartbeat CPU  1 instructions:   73000001 cycles:  190007438 heartbeat IPC: 0.21422 cumulative IPC: 0.13002 (Simulation time: 0 hr 10 min 4 sec) 
Heartbeat CPU  3 instructions:   85000001 cycles:  190365148 heartbeat IPC: 0.14991 cumulative IPC: 0.15170 (Simulation time: 0 hr 10 min 4 sec) 
Heartbeat CPU  0 instructions:   72000000 cycles:  192994117 heartbeat IPC: 0.11935 cumulative IPC: 0.12940 (Simulation time: 0 hr 10 min 8 sec) 
Heartbeat CPU  2 instructions:   90000003 cycles:  194033320 heartbeat IPC: 0.17912 cumulative IPC: 0.17829 (Simulation time: 0 hr 10 min 10 sec) 
Heartbeat CPU  3 instructions:   86000003 cycles:  197019581 heartbeat IPC: 0.15028 cumulative IPC: 0.15165 (Simulation time: 0 hr 10 min 14 sec) 
Heartbeat CPU  1 instructions:   74000003 cycles:  197079004 heartbeat IPC: 0.14141 cumulative IPC: 0.13048 (Simulation time: 0 hr 10 min 14 sec) 
Heartbeat CPU  2 instructions:   91000001 cycles:  199907062 heartbeat IPC: 0.17025 cumulative IPC: 0.17802 (Simulation time: 0 hr 10 min 18 sec) 
Heartbeat CPU  0 instructions:   73000003 cycles:  201393041 heartbeat IPC: 0.11906 cumulative IPC: 0.12891 (Simulation time: 0 hr 10 min 20 sec) 
Heartbeat CPU  3 instructions:   87000002 cycles:  203662261 heartbeat IPC: 0.15054 cumulative IPC: 0.15161 (Simulation time: 0 hr 10 min 23 sec) 
Heartbeat CPU  1 instructions:   75000001 cycles:  205207874 heartbeat IPC: 0.12302 cumulative IPC: 0.13015 (Simulation time: 0 hr 10 min 25 sec) 
Heartbeat CPU  2 instructions:   92000000 cycles:  205668761 heartbeat IPC: 0.17356 cumulative IPC: 0.17788 (Simulation time: 0 hr 10 min 26 sec) 
Heartbeat CPU  0 instructions:   74000003 cycles:  209815030 heartbeat IPC: 0.11874 cumulative IPC: 0.12845 (Simulation time: 0 hr 10 min 32 sec) 
Heartbeat CPU  3 instructions:   88000000 cycles:  210328390 heartbeat IPC: 0.15001 cumulative IPC: 0.15155 (Simulation time: 0 hr 10 min 33 sec) 
Heartbeat CPU  2 instructions:   93000002 cycles:  211287506 heartbeat IPC: 0.17798 cumulative IPC: 0.17788 (Simulation time: 0 hr 10 min 34 sec) 
Heartbeat CPU  1 instructions:   76000000 cycles:  213379573 heartbeat IPC: 0.12237 cumulative IPC: 0.12982 (Simulation time: 0 hr 10 min 37 sec) 
Heartbeat CPU  2 instructions:   94000000 cycles:  216883831 heartbeat IPC: 0.17869 cumulative IPC: 0.17791 (Simulation time: 0 hr 10 min 42 sec) 
Heartbeat CPU  3 instructions:   89000002 cycles:  216975005 heartbeat IPC: 0.15045 cumulative IPC: 0.15151 (Simulation time: 0 hr 10 min 42 sec) 
Heartbeat CPU  0 instructions:   75000002 cycles:  218185474 heartbeat IPC: 0.11947 cumulative IPC: 0.12807 (Simulation time: 0 hr 10 min 44 sec) 
Heartbeat CPU  1 instructions:   77000001 cycles:  221614288 heartbeat IPC: 0.12144 cumulative IPC: 0.12947 (Simulation time: 0 hr 10 min 49 sec) 
Heartbeat CPU  2 instructions:   95000003 cycles:  222624374 heartbeat IPC: 0.17420 cumulative IPC: 0.17780 (Simulation time: 0 hr 10 min 50 sec) 
Heartbeat CPU  3 instructions:   90000003 cycles:  223637518 heartbeat IPC: 0.15009 cumulative IPC: 0.15146 (Simulation time: 0 hr 10 min 52 sec) 
Heartbeat CPU  0 instructions:   76000000 cycles:  226600790 heartbeat IPC: 0.11883 cumulative IPC: 0.12769 (Simulation time: 0 hr 10 min 56 sec) 
Heartbeat CPU  2 instructions:   96000000 cycles:  228037001 heartbeat IPC: 0.18475 cumulative IPC: 0.17798 (Simulation time: 0 hr 10 min 58 sec) 
Heartbeat CPU  1 instructions:   78000000 cycles:  229887371 heartbeat IPC: 0.12087 cumulative IPC: 0.12912 (Simulation time: 0 hr 11 min 1 sec) 
Heartbeat CPU  3 instructions:   91000002 cycles:  230291143 heartbeat IPC: 0.15029 cumulative IPC: 0.15143 (Simulation time: 0 hr 11 min 1 sec) 
Heartbeat CPU  2 instructions:   97000000 cycles:  233512821 heartbeat IPC: 0.18262 cumulative IPC: 0.17811 (Simulation time: 0 hr 11 min 6 sec) 
Heartbeat CPU  0 instructions:   77000003 cycles:  235063874 heartbeat IPC: 0.11816 cumulative IPC: 0.12731 (Simulation time: 0 hr 11 min 8 sec) 
Heartbeat CPU  3 instructions:   92000000 cycles:  236931873 heartbeat IPC: 0.15059 cumulative IPC: 0.15140 (Simulation time: 0 hr 11 min 11 sec) 
Heartbeat CPU  1 instructions:   79000003 cycles:  238100437 heartbeat IPC: 0.12176 cumulative IPC: 0.12884 (Simulation time: 0 hr 11 min 12 sec) 
Heartbeat CPU  2 instructions:   98000000 cycles:  239069445 heartbeat IPC: 0.17997 cumulative IPC: 0.17815 (Simulation time: 0 hr 11 min 14 sec) 
Heartbeat CPU  0 instructions:   78000001 cycles:  243522517 heartbeat IPC: 0.11822 cumulative IPC: 0.12696 (Simulation time: 0 hr 11 min 20 sec) 
Heartbeat CPU  3 instructions:   93000002 cycles:  243572444 heartbeat IPC: 0.15059 cumulative IPC: 0.15138 (Simulation time: 0 hr 11 min 20 sec) 
Heartbeat CPU  2 instructions:   99000002 cycles:  244586292 heartbeat IPC: 0.18126 cumulative IPC: 0.17823 (Simulation time: 0 hr 11 min 22 sec) 
Heartbeat CPU  1 instructions:   80000000 cycles:  246300775 heartbeat IPC: 0.12195 cumulative IPC: 0.12859 (Simulation time: 0 hr 11 min 24 sec) 
*** Reached end of trace for Core: 2 Repeating trace: /data3/CLOUD9/traces/cloud9_phase4_core2.trace.xz
Heartbeat CPU  2 instructions:  100000000 cycles:  250013191 heartbeat IPC: 0.18427 cumulative IPC: 0.17837 (Simulation time: 0 hr 11 min 29 sec) 
Heartbeat CPU  3 instructions:   94000002 cycles:  250256633 heartbeat IPC: 0.14961 cumulative IPC: 0.15132 (Simulation time: 0 hr 11 min 30 sec) 
Heartbeat CPU  0 instructions:   79000001 cycles:  252226577 heartbeat IPC: 0.11489 cumulative IPC: 0.12650 (Simulation time: 0 hr 11 min 33 sec) 
Heartbeat CPU  1 instructions:   81000003 cycles:  254527949 heartbeat IPC: 0.12155 cumulative IPC: 0.12834 (Simulation time: 0 hr 11 min 36 sec) 
Heartbeat CPU  2 instructions:  101000001 cycles:  255608423 heartbeat IPC: 0.17872 cumulative IPC: 0.17838 (Simulation time: 0 hr 11 min 37 sec) 
Heartbeat CPU  3 instructions:   95000003 cycles:  256916631 heartbeat IPC: 0.15015 cumulative IPC: 0.15129 (Simulation time: 0 hr 11 min 39 sec) 
Heartbeat CPU  0 instructions:   80000000 cycles:  260683874 heartbeat IPC: 0.11824 cumulative IPC: 0.12620 (Simulation time: 0 hr 11 min 44 sec) 
Heartbeat CPU  2 instructions:  102000000 cycles:  261305763 heartbeat IPC: 0.17552 cumulative IPC: 0.17831 (Simulation time: 0 hr 11 min 45 sec) 
Heartbeat CPU  1 instructions:   82000000 cycles:  262775814 heartbeat IPC: 0.12124 cumulative IPC: 0.12810 (Simulation time: 0 hr 11 min 47 sec) 
Heartbeat CPU  3 instructions:   96000000 cycles:  263553110 heartbeat IPC: 0.15068 cumulative IPC: 0.15127 (Simulation time: 0 hr 11 min 48 sec) 
Heartbeat CPU  2 instructions:  103000003 cycles:  266874396 heartbeat IPC: 0.17958 cumulative IPC: 0.17834 (Simulation time: 0 hr 11 min 53 sec) 
Heartbeat CPU  0 instructions:   81000001 cycles:  269175295 heartbeat IPC: 0.11777 cumulative IPC: 0.12591 (Simulation time: 0 hr 11 min 56 sec) 
Heartbeat CPU  3 instructions:   97000003 cycles:  270217592 heartbeat IPC: 0.15005 cumulative IPC: 0.15124 (Simulation time: 0 hr 11 min 58 sec) 
Heartbeat CPU  1 instructions:   83000000 cycles:  271041826 heartbeat IPC: 0.12098 cumulative IPC: 0.12786 (Simulation time: 0 hr 11 min 59 sec) 
Heartbeat CPU  2 instructions:  104000000 cycles:  272585159 heartbeat IPC: 0.17511 cumulative IPC: 0.17827 (Simulation time: 0 hr 12 min 1 sec) 
Heartbeat CPU  3 instructions:   98000000 cycles:  276882551 heartbeat IPC: 0.15004 cumulative IPC: 0.15121 (Simulation time: 0 hr 12 min 7 sec) 
Heartbeat CPU  0 instructions:   82000000 cycles:  277684527 heartbeat IPC: 0.11752 cumulative IPC: 0.12563 (Simulation time: 0 hr 12 min 8 sec) 
Heartbeat CPU  2 instructions:  105000003 cycles:  278158261 heartbeat IPC: 0.17943 cumulative IPC: 0.17829 (Simulation time: 0 hr 12 min 9 sec) 
Heartbeat CPU  1 instructions:   84000000 cycles:  279506629 heartbeat IPC: 0.11814 cumulative IPC: 0.12754 (Simulation time: 0 hr 12 min 11 sec) 
Heartbeat CPU  0 instructions:   83000003 cycles:  282158860 heartbeat IPC: 0.22350 cumulative IPC: 0.12732 (Simulation time: 0 hr 12 min 16 sec) 
Heartbeat CPU  3 instructions:   99000002 cycles:  283550996 heartbeat IPC: 0.14996 cumulative IPC: 0.15118 (Simulation time: 0 hr 12 min 18 sec) 
Heartbeat CPU  2 instructions:  106000002 cycles:  283934256 heartbeat IPC: 0.17313 cumulative IPC: 0.17818 (Simulation time: 0 hr 12 min 19 sec) 
Heartbeat CPU  0 instructions:   84000000 cycles:  287375689 heartbeat IPC: 0.19169 cumulative IPC: 0.12859 (Simulation time: 0 hr 12 min 24 sec) 
Heartbeat CPU  1 instructions:   85000000 cycles:  287835930 heartbeat IPC: 0.12006 cumulative IPC: 0.12730 (Simulation time: 0 hr 12 min 25 sec) 
Heartbeat CPU  2 instructions:  107000001 cycles:  289629569 heartbeat IPC: 0.17558 cumulative IPC: 0.17813 (Simulation time: 0 hr 12 min 27 sec) 
*** Reached end of trace for Core: 3 Repeating trace: /data3/CLOUD9/traces/cloud9_phase4_core3.trace.xz
Heartbeat CPU  3 instructions:  100000000 cycles:  290263113 heartbeat IPC: 0.14898 cumulative IPC: 0.15112 (Simulation time: 0 hr 12 min 28 sec) 
Heartbeat CPU  0 instructions:   85000000 cycles:  295387482 heartbeat IPC: 0.12482 cumulative IPC: 0.12848 (Simulation time: 0 hr 12 min 35 sec) 
Heartbeat CPU  2 instructions:  108000000 cycles:  295536646 heartbeat IPC: 0.16929 cumulative IPC: 0.17793 (Simulation time: 0 hr 12 min 35 sec) 
Heartbeat CPU  1 instructions:   86000003 cycles:  296228390 heartbeat IPC: 0.11915 cumulative IPC: 0.12705 (Simulation time: 0 hr 12 min 36 sec) 
Heartbeat CPU  3 instructions:  101000002 cycles:  297377567 heartbeat IPC: 0.14056 cumulative IPC: 0.15085 (Simulation time: 0 hr 12 min 38 sec) 
Heartbeat CPU  1 instructions:   87000002 cycles:  301450531 heartbeat IPC: 0.19149 cumulative IPC: 0.12826 (Simulation time: 0 hr 12 min 44 sec) 
Heartbeat CPU  2 instructions:  109000003 cycles:  301469827 heartbeat IPC: 0.16854 cumulative IPC: 0.17773 (Simulation time: 0 hr 12 min 45 sec) 
Heartbeat CPU  0 instructions:   86000002 cycles:  303681022 heartbeat IPC: 0.12058 cumulative IPC: 0.12825 (Simulation time: 0 hr 12 min 48 sec) 
Heartbeat CPU  3 instructions:  102000001 cycles:  304500887 heartbeat IPC: 0.14038 cumulative IPC: 0.15058 (Simulation time: 0 hr 12 min 49 sec) 
Heartbeat CPU  1 instructions:   88000000 cycles:  306447345 heartbeat IPC: 0.20013 cumulative IPC: 0.12953 (Simulation time: 0 hr 12 min 52 sec) 
Heartbeat CPU  2 instructions:  110000000 cycles:  307433569 heartbeat IPC: 0.16768 cumulative IPC: 0.17752 (Simulation time: 0 hr 12 min 54 sec) 
Heartbeat CPU  3 instructions:  103000002 cycles:  311630422 heartbeat IPC: 0.14026 cumulative IPC: 0.15033 (Simulation time: 0 hr 13 min 0 sec) 
Heartbeat CPU  0 instructions:   87000001 cycles:  312051990 heartbeat IPC: 0.11946 cumulative IPC: 0.12799 (Simulation time: 0 hr 13 min 0 sec) 
Heartbeat CPU  2 instructions:  111000002 cycles:  313266764 heartbeat IPC: 0.17143 cumulative IPC: 0.17740 (Simulation time: 0 hr 13 min 2 sec) 
Heartbeat CPU  1 instructions:   89000003 cycles:  314079720 heartbeat IPC: 0.13102 cumulative IPC: 0.12957 (Simulation time: 0 hr 13 min 3 sec) 
Heartbeat CPU  3 instructions:  104000000 cycles:  318753066 heartbeat IPC: 0.14040 cumulative IPC: 0.15009 (Simulation time: 0 hr 13 min 10 sec) 
Heartbeat CPU  2 instructions:  112000000 cycles:  319293935 heartbeat IPC: 0.16591 cumulative IPC: 0.17717 (Simulation time: 0 hr 13 min 10 sec) 
Heartbeat CPU  0 instructions:   88000000 cycles:  320480935 heartbeat IPC: 0.11864 cumulative IPC: 0.12773 (Simulation time: 0 hr 13 min 12 sec) 
Heartbeat CPU  1 instructions:   90000003 cycles:  322273042 heartbeat IPC: 0.12205 cumulative IPC: 0.12936 (Simulation time: 0 hr 13 min 14 sec) 
Heartbeat CPU  2 instructions:  113000002 cycles:  324906214 heartbeat IPC: 0.17818 cumulative IPC: 0.17719 (Simulation time: 0 hr 13 min 18 sec) 
Heartbeat CPU  3 instructions:  105000003 cycles:  325882068 heartbeat IPC: 0.14027 cumulative IPC: 0.14986 (Simulation time: 0 hr 13 min 20 sec) 
Heartbeat CPU  0 instructions:   89000003 cycles:  328875332 heartbeat IPC: 0.11913 cumulative IPC: 0.12749 (Simulation time: 0 hr 13 min 24 sec) 
Heartbeat CPU  2 instructions:  114000002 cycles:  330430621 heartbeat IPC: 0.18101 cumulative IPC: 0.17725 (Simulation time: 0 hr 13 min 26 sec) 
Heartbeat CPU  1 instructions:   91000002 cycles:  330522965 heartbeat IPC: 0.12121 cumulative IPC: 0.12914 (Simulation time: 0 hr 13 min 26 sec) 
Heartbeat CPU  3 instructions:  106000002 cycles:  332979425 heartbeat IPC: 0.14090 cumulative IPC: 0.14965 (Simulation time: 0 hr 13 min 30 sec) 
Heartbeat CPU  2 instructions:  115000003 cycles:  335962604 heartbeat IPC: 0.18077 cumulative IPC: 0.17732 (Simulation time: 0 hr 13 min 34 sec) 
Heartbeat CPU  0 instructions:   90000001 cycles:  337236001 heartbeat IPC: 0.11961 cumulative IPC: 0.12728 (Simulation time: 0 hr 13 min 36 sec) 
Heartbeat CPU  1 instructions:   92000000 cycles:  338823090 heartbeat IPC: 0.12048 cumulative IPC: 0.12891 (Simulation time: 0 hr 13 min 38 sec) 
Heartbeat CPU  3 instructions:  107000003 cycles:  340106132 heartbeat IPC: 0.14032 cumulative IPC: 0.14944 (Simulation time: 0 hr 13 min 40 sec) 
Heartbeat CPU  2 instructions:  116000000 cycles:  341476109 heartbeat IPC: 0.18137 cumulative IPC: 0.17739 (Simulation time: 0 hr 13 min 42 sec) 
Heartbeat CPU  0 instructions:   91000000 cycles:  345685463 heartbeat IPC: 0.11835 cumulative IPC: 0.12705 (Simulation time: 0 hr 13 min 47 sec) 
Heartbeat CPU  2 instructions:  117000002 cycles:  346943774 heartbeat IPC: 0.18289 cumulative IPC: 0.17748 (Simulation time: 0 hr 13 min 49 sec) 
Heartbeat CPU  1 instructions:   93000002 cycles:  347041394 heartbeat IPC: 0.12168 cumulative IPC: 0.12873 (Simulation time: 0 hr 13 min 49 sec) 
Heartbeat CPU  3 instructions:  108000000 cycles:  347231942 heartbeat IPC: 0.14033 cumulative IPC: 0.14924 (Simulation time: 0 hr 13 min 50 sec) 
Heartbeat CPU  2 instructions:  118000003 cycles:  352519852 heartbeat IPC: 0.17934 cumulative IPC: 0.17751 (Simulation time: 0 hr 13 min 57 sec) 
Heartbeat CPU  0 instructions:   92000000 cycles:  354170923 heartbeat IPC: 0.11785 cumulative IPC: 0.12681 (Simulation time: 0 hr 13 min 59 sec) 
Heartbeat CPU  3 instructions:  109000002 cycles:  354362532 heartbeat IPC: 0.14024 cumulative IPC: 0.14905 (Simulation time: 0 hr 14 min 0 sec) 
Heartbeat CPU  1 instructions:   94000001 cycles:  355460940 heartbeat IPC: 0.11877 cumulative IPC: 0.12848 (Simulation time: 0 hr 14 min 1 sec) 
Heartbeat CPU  2 instructions:  119000002 cycles:  358138358 heartbeat IPC: 0.17798 cumulative IPC: 0.17752 (Simulation time: 0 hr 14 min 5 sec) 
Heartbeat CPU  3 instructions:  110000003 cycles:  361508664 heartbeat IPC: 0.13994 cumulative IPC: 0.14886 (Simulation time: 0 hr 14 min 10 sec) 
Heartbeat CPU  0 instructions:   93000003 cycles:  362619793 heartbeat IPC: 0.11836 cumulative IPC: 0.12660 (Simulation time: 0 hr 14 min 11 sec) 
Heartbeat CPU  1 instructions:   95000003 cycles:  363755106 heartbeat IPC: 0.12057 cumulative IPC: 0.12829 (Simulation time: 0 hr 14 min 13 sec) 
Heartbeat CPU  2 instructions:  120000000 cycles:  363986879 heartbeat IPC: 0.17098 cumulative IPC: 0.17741 (Simulation time: 0 hr 14 min 13 sec) 
Heartbeat CPU  3 instructions:  111000002 cycles:  368634584 heartbeat IPC: 0.14033 cumulative IPC: 0.14868 (Simulation time: 0 hr 14 min 20 sec) 
Heartbeat CPU  2 instructions:  121000000 cycles:  369498348 heartbeat IPC: 0.18144 cumulative IPC: 0.17747 (Simulation time: 0 hr 14 min 21 sec) 
Heartbeat CPU  0 instructions:   94000001 cycles:  371308868 heartbeat IPC: 0.11509 cumulative IPC: 0.12632 (Simulation time: 0 hr 14 min 23 sec) 
Heartbeat CPU  1 instructions:   96000000 cycles:  372078358 heartbeat IPC: 0.12014 cumulative IPC: 0.12809 (Simulation time: 0 hr 14 min 25 sec) 
Heartbeat CPU  2 instructions:  122000003 cycles:  375292333 heartbeat IPC: 0.17259 cumulative IPC: 0.17739 (Simulation time: 0 hr 14 min 29 sec) 
Heartbeat CPU  3 instructions:  112000000 cycles:  375751466 heartbeat IPC: 0.14051 cumulative IPC: 0.14852 (Simulation time: 0 hr 14 min 30 sec) 
Heartbeat CPU  0 instructions:   95000002 cycles:  379790303 heartbeat IPC: 0.11790 cumulative IPC: 0.12612 (Simulation time: 0 hr 14 min 35 sec) 
Heartbeat CPU  1 instructions:   97000000 cycles:  380395574 heartbeat IPC: 0.12023 cumulative IPC: 0.12791 (Simulation time: 0 hr 14 min 36 sec) 
Heartbeat CPU  2 instructions:  123000000 cycles:  381050836 heartbeat IPC: 0.17366 cumulative IPC: 0.17733 (Simulation time: 0 hr 14 min 37 sec) 
Heartbeat CPU  3 instructions:  113000000 cycles:  382876846 heartbeat IPC: 0.14034 cumulative IPC: 0.14835 (Simulation time: 0 hr 14 min 40 sec) 
Heartbeat CPU  2 instructions:  124000000 cycles:  386357248 heartbeat IPC: 0.18845 cumulative IPC: 0.17749 (Simulation time: 0 hr 14 min 45 sec) 
Heartbeat CPU  0 instructions:   96000000 cycles:  388319728 heartbeat IPC: 0.11724 cumulative IPC: 0.12591 (Simulation time: 0 hr 14 min 47 sec) 
Heartbeat CPU  1 instructions:   98000002 cycles:  388924866 heartbeat IPC: 0.11724 cumulative IPC: 0.12766 (Simulation time: 0 hr 14 min 48 sec) 
Heartbeat CPU  3 instructions:  114000001 cycles:  389994195 heartbeat IPC: 0.14050 cumulative IPC: 0.14820 (Simulation time: 0 hr 14 min 50 sec) 
Heartbeat CPU  2 instructions:  125000001 cycles:  391810868 heartbeat IPC: 0.18336 cumulative IPC: 0.17758 (Simulation time: 0 hr 14 min 52 sec) 
Heartbeat CPU  0 instructions:   97000003 cycles:  395715867 heartbeat IPC: 0.13521 cumulative IPC: 0.12609 (Simulation time: 0 hr 14 min 58 sec) 
Heartbeat CPU  3 instructions:  115000003 cycles:  397117377 heartbeat IPC: 0.14039 cumulative IPC: 0.14805 (Simulation time: 0 hr 15 min 0 sec) 
Heartbeat CPU  1 instructions:   99000000 cycles:  397170548 heartbeat IPC: 0.12128 cumulative IPC: 0.12752 (Simulation time: 0 hr 15 min 0 sec) 
Heartbeat CPU  2 instructions:  126000002 cycles:  397510548 heartbeat IPC: 0.17545 cumulative IPC: 0.17755 (Simulation time: 0 hr 15 min 1 sec) 
Heartbeat CPU  0 instructions:   98000000 cycles:  400149651 heartbeat IPC: 0.22554 cumulative IPC: 0.12726 (Simulation time: 0 hr 15 min 5 sec) 
Heartbeat CPU  2 instructions:  127000003 cycles:  403149136 heartbeat IPC: 0.17735 cumulative IPC: 0.17754 (Simulation time: 0 hr 15 min 10 sec) 
Heartbeat CPU  3 instructions:  116000000 cycles:  404288442 heartbeat IPC: 0.13945 cumulative IPC: 0.14789 (Simulation time: 0 hr 15 min 11 sec) 
*** Reached end of trace for Core: 1 Repeating trace: /data3/CLOUD9/traces/cloud9_phase4_core1.trace.xz
Heartbeat CPU  1 instructions:  100000000 cycles:  405568560 heartbeat IPC: 0.11908 cumulative IPC: 0.12733 (Simulation time: 0 hr 15 min 13 sec) 
Heartbeat CPU  0 instructions:   99000001 cycles:  406262051 heartbeat IPC: 0.16360 cumulative IPC: 0.12784 (Simulation time: 0 hr 15 min 14 sec) 
Heartbeat CPU  2 instructions:  128000000 cycles:  408652572 heartbeat IPC: 0.18170 cumulative IPC: 0.17760 (Simulation time: 0 hr 15 min 18 sec) 
Heartbeat CPU  3 instructions:  117000000 cycles:  411445490 heartbeat IPC: 0.13972 cumulative IPC: 0.14774 (Simulation time: 0 hr 15 min 21 sec) 
Heartbeat CPU  1 instructions:  101000001 cycles:  413783948 heartbeat IPC: 0.12172 cumulative IPC: 0.12722 (Simulation time: 0 hr 15 min 25 sec) 
Heartbeat CPU  2 instructions:  129000000 cycles:  414117514 heartbeat IPC: 0.18298 cumulative IPC: 0.17768 (Simulation time: 0 hr 15 min 25 sec) 
*** Reached end of trace for Core: 0 Repeating trace: /data3/CLOUD9/traces/cloud9_phase4_core0.trace.xz
Heartbeat CPU  0 instructions:  100000000 cycles:  414562205 heartbeat IPC: 0.12048 cumulative IPC: 0.12769 (Simulation time: 0 hr 15 min 26 sec) 
Heartbeat CPU  3 instructions:  118000000 cycles:  418621824 heartbeat IPC: 0.13935 cumulative IPC: 0.14759 (Simulation time: 0 hr 15 min 32 sec) 
Heartbeat CPU  2 instructions:  130000001 cycles:  419849110 heartbeat IPC: 0.17447 cumulative IPC: 0.17763 (Simulation time: 0 hr 15 min 33 sec) 
Heartbeat CPU  1 instructions:  102000002 cycles:  422078503 heartbeat IPC: 0.12056 cumulative IPC: 0.12708 (Simulation time: 0 hr 15 min 36 sec) 
Heartbeat CPU  0 instructions:  101000003 cycles:  422897365 heartbeat IPC: 0.11997 cumulative IPC: 0.12752 (Simulation time: 0 hr 15 min 38 sec) 
Heartbeat CPU  2 instructions:  131000000 cycles:  425345579 heartbeat IPC: 0.18193 cumulative IPC: 0.17769 (Simulation time: 0 hr 15 min 41 sec) 
Heartbeat CPU  3 instructions:  119000003 cycles:  425863053 heartbeat IPC: 0.13810 cumulative IPC: 0.14742 (Simulation time: 0 hr 15 min 42 sec) 
Heartbeat CPU  1 instructions:  103000003 cycles:  430339059 heartbeat IPC: 0.12106 cumulative IPC: 0.12696 (Simulation time: 0 hr 15 min 48 sec) 
Heartbeat CPU  2 instructions:  132000000 cycles:  430708166 heartbeat IPC: 0.18648 cumulative IPC: 0.17781 (Simulation time: 0 hr 15 min 49 sec) 
Heartbeat CPU  0 instructions:  102000002 cycles:  431237289 heartbeat IPC: 0.11991 cumulative IPC: 0.12737 (Simulation time: 0 hr 15 min 49 sec) 
Heartbeat CPU  3 instructions:  120000000 cycles:  433071693 heartbeat IPC: 0.13872 cumulative IPC: 0.14727 (Simulation time: 0 hr 15 min 52 sec) 
Heartbeat CPU  2 instructions:  133000001 cycles:  436382495 heartbeat IPC: 0.17623 cumulative IPC: 0.17779 (Simulation time: 0 hr 15 min 57 sec) 
Heartbeat CPU  1 instructions:  104000000 cycles:  438655485 heartbeat IPC: 0.12024 cumulative IPC: 0.12682 (Simulation time: 0 hr 16 min 0 sec) 
Heartbeat CPU  0 instructions:  103000003 cycles:  439625141 heartbeat IPC: 0.11922 cumulative IPC: 0.12721 (Simulation time: 0 hr 16 min 1 sec) 
Heartbeat CPU  3 instructions:  121000003 cycles:  440314876 heartbeat IPC: 0.13806 cumulative IPC: 0.14711 (Simulation time: 0 hr 16 min 2 sec) 
Heartbeat CPU  2 instructions:  134000003 cycles:  442142634 heartbeat IPC: 0.17361 cumulative IPC: 0.17773 (Simulation time: 0 hr 16 min 4 sec) 
Heartbeat CPU  1 instructions:  105000001 cycles:  446985796 heartbeat IPC: 0.12004 cumulative IPC: 0.12669 (Simulation time: 0 hr 16 min 11 sec) 
Heartbeat CPU  3 instructions:  122000000 cycles:  447512323 heartbeat IPC: 0.13894 cumulative IPC: 0.14697 (Simulation time: 0 hr 16 min 12 sec) 
Heartbeat CPU  2 instructions:  135000002 cycles:  447646093 heartbeat IPC: 0.18170 cumulative IPC: 0.17778 (Simulation time: 0 hr 16 min 12 sec) 
Heartbeat CPU  0 instructions:  104000000 cycles:  448013845 heartbeat IPC: 0.11921 cumulative IPC: 0.12705 (Simulation time: 0 hr 16 min 13 sec) 
Heartbeat CPU  2 instructions:  136000000 cycles:  453461106 heartbeat IPC: 0.17197 cumulative IPC: 0.17770 (Simulation time: 0 hr 16 min 20 sec) 
Heartbeat CPU  3 instructions:  123000000 cycles:  454667582 heartbeat IPC: 0.13976 cumulative IPC: 0.14685 (Simulation time: 0 hr 16 min 22 sec) 
Heartbeat CPU  1 instructions:  106000002 cycles:  455264313 heartbeat IPC: 0.12079 cumulative IPC: 0.12658 (Simulation time: 0 hr 16 min 23 sec) 
Heartbeat CPU  0 instructions:  105000002 cycles:  456415164 heartbeat IPC: 0.11903 cumulative IPC: 0.12689 (Simulation time: 0 hr 16 min 24 sec) 
Heartbeat CPU  2 instructions:  137000001 cycles:  458913609 heartbeat IPC: 0.18340 cumulative IPC: 0.17777 (Simulation time: 0 hr 16 min 28 sec) 
Heartbeat CPU  3 instructions:  124000000 cycles:  461932679 heartbeat IPC: 0.13764 cumulative IPC: 0.14670 (Simulation time: 0 hr 16 min 32 sec) 
Heartbeat CPU  1 instructions:  107000001 cycles:  463565179 heartbeat IPC: 0.12047 cumulative IPC: 0.12646 (Simulation time: 0 hr 16 min 34 sec) 
Heartbeat CPU  2 instructions:  138000002 cycles:  464695280 heartbeat IPC: 0.17296 cumulative IPC: 0.17771 (Simulation time: 0 hr 16 min 36 sec) 
Heartbeat CPU  0 instructions:  106000002 cycles:  465072791 heartbeat IPC: 0.11551 cumulative IPC: 0.12667 (Simulation time: 0 hr 16 min 37 sec) 
Heartbeat CPU  3 instructions:  125000001 cycles:  469200446 heartbeat IPC: 0.13759 cumulative IPC: 0.14655 (Simulation time: 0 hr 16 min 42 sec) 
Heartbeat CPU  2 instructions:  139000002 cycles:  470264757 heartbeat IPC: 0.17955 cumulative IPC: 0.17773 (Simulation time: 0 hr 16 min 44 sec) 
Heartbeat CPU  1 instructions:  108000000 cycles:  471941270 heartbeat IPC: 0.11939 cumulative IPC: 0.12633 (Simulation time: 0 hr 16 min 46 sec) 
Heartbeat CPU  0 instructions:  107000000 cycles:  473509414 heartbeat IPC: 0.11853 cumulative IPC: 0.12652 (Simulation time: 0 hr 16 min 48 sec) 
Heartbeat CPU  2 instructions:  140000000 cycles:  475791039 heartbeat IPC: 0.18095 cumulative IPC: 0.17777 (Simulation time: 0 hr 16 min 52 sec) 
Heartbeat CPU  3 instructions:  126000000 cycles:  476458950 heartbeat IPC: 0.13777 cumulative IPC: 0.14641 (Simulation time: 0 hr 16 min 52 sec) 
Heartbeat CPU  1 instructions:  109000003 cycles:  480225863 heartbeat IPC: 0.12071 cumulative IPC: 0.12623 (Simulation time: 0 hr 16 min 58 sec) 
Heartbeat CPU  2 instructions:  141000000 cycles:  481476405 heartbeat IPC: 0.17589 cumulative IPC: 0.17775 (Simulation time: 0 hr 17 min 0 sec) 
Heartbeat CPU  0 instructions:  108000000 cycles:  481976349 heartbeat IPC: 0.11811 cumulative IPC: 0.12636 (Simulation time: 0 hr 17 min 0 sec) 
Heartbeat CPU  3 instructions:  127000000 cycles:  483777176 heartbeat IPC: 0.13665 cumulative IPC: 0.14625 (Simulation time: 0 hr 17 min 3 sec) 
Heartbeat CPU  2 instructions:  142000002 cycles:  487053182 heartbeat IPC: 0.17932 cumulative IPC: 0.17777 (Simulation time: 0 hr 17 min 8 sec) 
Heartbeat CPU  0 instructions:  109000000 cycles:  488318382 heartbeat IPC: 0.15768 cumulative IPC: 0.12679 (Simulation time: 0 hr 17 min 10 sec) 
Heartbeat CPU  1 instructions:  110000001 cycles:  488762115 heartbeat IPC: 0.11715 cumulative IPC: 0.12606 (Simulation time: 0 hr 17 min 10 sec) 
Heartbeat CPU  3 instructions:  128000000 cycles:  490834617 heartbeat IPC: 0.14169 cumulative IPC: 0.14618 (Simulation time: 0 hr 17 min 14 sec) 
Heartbeat CPU  2 instructions:  143000000 cycles:  492494422 heartbeat IPC: 0.18378 cumulative IPC: 0.17784 (Simulation time: 0 hr 17 min 17 sec) 
Heartbeat CPU  0 instructions:  110000002 cycles:  492835066 heartbeat IPC: 0.22140 cumulative IPC: 0.12770 (Simulation time: 0 hr 17 min 17 sec) 
Heartbeat CPU  1 instructions:  111000001 cycles:  497094853 heartbeat IPC: 0.12001 cumulative IPC: 0.12595 (Simulation time: 0 hr 17 min 23 sec) 
Heartbeat CPU  3 instructions:  129000002 cycles:  497628093 heartbeat IPC: 0.14720 cumulative IPC: 0.14620 (Simulation time: 0 hr 17 min 24 sec) 
Heartbeat CPU  2 instructions:  144000000 cycles:  498321401 heartbeat IPC: 0.17162 cumulative IPC: 0.17776 (Simulation time: 0 hr 17 min 25 sec) 
Heartbeat CPU  0 instructions:  111000001 cycles:  499750221 heartbeat IPC: 0.14461 cumulative IPC: 0.12794 (Simulation time: 0 hr 17 min 27 sec) 
Heartbeat CPU  2 instructions:  145000003 cycles:  503704422 heartbeat IPC: 0.18577 cumulative IPC: 0.17785 (Simulation time: 0 hr 17 min 33 sec) 
Heartbeat CPU  3 instructions:  130000000 cycles:  504370715 heartbeat IPC: 0.14831 cumulative IPC: 0.14623 (Simulation time: 0 hr 17 min 34 sec) 
Heartbeat CPU  1 instructions:  112000000 cycles:  505556235 heartbeat IPC: 0.11818 cumulative IPC: 0.12582 (Simulation time: 0 hr 17 min 36 sec) 
Heartbeat CPU  0 instructions:  112000000 cycles:  508103621 heartbeat IPC: 0.11971 cumulative IPC: 0.12780 (Simulation time: 0 hr 17 min 39 sec) 
Heartbeat CPU  2 instructions:  146000000 cycles:  509217194 heartbeat IPC: 0.18140 cumulative IPC: 0.17789 (Simulation time: 0 hr 17 min 41 sec) 
Heartbeat CPU  3 instructions:  131000000 cycles:  511117512 heartbeat IPC: 0.14822 cumulative IPC: 0.14625 (Simulation time: 0 hr 17 min 44 sec) 
Heartbeat CPU  1 instructions:  113000002 cycles:  511623124 heartbeat IPC: 0.16483 cumulative IPC: 0.12630 (Simulation time: 0 hr 17 min 45 sec) 
Heartbeat CPU  2 instructions:  147000003 cycles:  514755666 heartbeat IPC: 0.18056 cumulative IPC: 0.17792 (Simulation time: 0 hr 17 min 50 sec) 
Heartbeat CPU  1 instructions:  114000000 cycles:  516316845 heartbeat IPC: 0.21305 cumulative IPC: 0.12713 (Simulation time: 0 hr 17 min 52 sec) 
Heartbeat CPU  0 instructions:  113000002 cycles:  516474278 heartbeat IPC: 0.11947 cumulative IPC: 0.12766 (Simulation time: 0 hr 17 min 53 sec) 
Heartbeat CPU  3 instructions:  132000000 cycles:  517866776 heartbeat IPC: 0.14816 cumulative IPC: 0.14628 (Simulation time: 0 hr 17 min 55 sec) 
Heartbeat CPU  2 instructions:  148000000 cycles:  520283865 heartbeat IPC: 0.18089 cumulative IPC: 0.17795 (Simulation time: 0 hr 17 min 58 sec) 
Heartbeat CPU  1 instructions:  115000002 cycles:  523474386 heartbeat IPC: 0.13971 cumulative IPC: 0.12731 (Simulation time: 0 hr 18 min 3 sec) 
Heartbeat CPU  3 instructions:  133000001 cycles:  524641421 heartbeat IPC: 0.14761 cumulative IPC: 0.14630 (Simulation time: 0 hr 18 min 5 sec) 
Heartbeat CPU  0 instructions:  114000001 cycles:  524874170 heartbeat IPC: 0.11905 cumulative IPC: 0.12752 (Simulation time: 0 hr 18 min 5 sec) 
Heartbeat CPU  2 instructions:  149000003 cycles:  525634465 heartbeat IPC: 0.18690 cumulative IPC: 0.17805 (Simulation time: 0 hr 18 min 6 sec) 
Heartbeat CPU  3 instructions:  134000003 cycles:  531416096 heartbeat IPC: 0.14761 cumulative IPC: 0.14632 (Simulation time: 0 hr 18 min 14 sec) 
Heartbeat CPU  2 instructions:  150000001 cycles:  531435811 heartbeat IPC: 0.17237 cumulative IPC: 0.17798 (Simulation time: 0 hr 18 min 14 sec) 
Heartbeat CPU  1 instructions:  116000000 cycles:  531671896 heartbeat IPC: 0.12199 cumulative IPC: 0.12722 (Simulation time: 0 hr 18 min 15 sec) 
Heartbeat CPU  0 instructions:  115000001 cycles:  533311443 heartbeat IPC: 0.11852 cumulative IPC: 0.12737 (Simulation time: 0 hr 18 min 17 sec) 
Heartbeat CPU  2 instructions:  151000003 cycles:  536911084 heartbeat IPC: 0.18264 cumulative IPC: 0.17803 (Simulation time: 0 hr 18 min 22 sec) 
Heartbeat CPU  3 instructions:  135000001 cycles:  538186728 heartbeat IPC: 0.14770 cumulative IPC: 0.14633 (Simulation time: 0 hr 18 min 24 sec) 
[...]
Core_2_L1I_prefetches 0
Core_2_L1I_prefetch_hit 0
Core_2_L1I_prefetch_miss 0
Core_2_L1I_writebacks 0
Core_2_L1I_writeback_hit 0
Core_2_L1I_writeback_miss 0
Core_2_L1I_prefetch_requested 0
Core_2_L1I_prefetch_dropped 0
Core_2_L1I_prefetch_issued 0
Core_2_L1I_prefetch_filled 0
Core_2_L1I_prefetch_useful 0
Core_2_L1I_prefetch_useless 0
Core_2_L1I_prefetch_late 0
Core_2_L1I_average_miss_latency 211.55344

Core_2_L1I_rq_access 210453372
Core_2_L1I_rq_forward 0
Core_2_L1I_rq_merged 158280207
Core_2_L1I_rq_to_cache 52173165
Core_2_L1I_rq_full 0

Core_2_L1I_wq_access 0
Core_2_L1I_wq_forward 0
Core_2_L1I_wq_merged 0
Core_2_L1I_wq_to_cache 0
Core_2_L1I_wq_full 0

Core_2_L1I_pq_access 0
Core_2_L1I_pq_forward 0
Core_2_L1I_pq_merged 0
Core_2_L1I_pq_to_cache 0
Core_2_L1I_pq_full 0

Core_2_L1I_acc_epochs 198390
Core_2_L1I_acc_level_0 198390
Core_2_L1I_acc_level_1 0
Core_2_L1I_acc_level_2 0
Core_2_L1I_acc_level_3 0
Core_2_L1I_acc_level_4 0
Core_2_L1I_acc_level_5 0
Core_2_L1I_acc_level_6 0
Core_2_L1I_acc_level_7 0
Core_2_L1I_acc_level_8 0
Core_2_L1I_acc_level_9 0

Core_2_L2C_total_access 773545
Core_2_L2C_total_hit 579387
Core_2_L2C_total_miss 194158
Core_2_L2C_loads 303200
Core_2_L2C_load_hit 170004
Core_2_L2C_load_miss 133196
Core_2_L2C_RFOs 164649
Core_2_L2C_RFO_hit 104093
Core_2_L2C_RFO_miss 60556
Core_2_L2C_prefetches 16036
Core_2_L2C_prefetch_hit 15960
Core_2_L2C_prefetch_miss 76
Core_2_L2C_writebacks 289660
Core_2_L2C_writeback_hit 289330
Core_2_L2C_writeback_miss 330
Core_2_L2C_prefetch_requested 54952
Core_2_L2C_prefetch_dropped 0
Core_2_L2C_prefetch_issued 54952
Core_2_L2C_prefetch_filled 141
Core_2_L2C_prefetch_useful 56
Core_2_L2C_prefetch_useless 85
Core_2_L2C_prefetch_late 9
Core_2_L2C_average_miss_latency 218.25716

Core_2_L2C_rq_access 657957
Core_2_L2C_rq_forward 0
Core_2_L2C_rq_merged 0
Core_2_L2C_rq_to_cache 657949
Core_2_L2C_rq_full 0

Core_2_L2C_wq_access 408682
Core_2_L2C_wq_forward 8
Core_2_L2C_wq_merged 0
Core_2_L2C_wq_to_cache 408682
Core_2_L2C_wq_full 0

Core_2_L2C_pq_access 54952
Core_2_L2C_pq_forward 0
Core_2_L2C_pq_merged 565
Core_2_L2C_pq_to_cache 54387
Core_2_L2C_pq_full 0

Core_2_L2C_acc_epochs 198390
Core_2_L2C_acc_level_0 198275
Core_2_L2C_acc_level_1 38
Core_2_L2C_acc_level_2 37
Core_2_L2C_acc_level_3 1
Core_2_L2C_acc_level_4 0
Core_2_L2C_acc_level_5 38
Core_2_L2C_acc_level_6 0
Core_2_L2C_acc_level_7 1
Core_2_L2C_acc_level_8 0
Core_2_L2C_acc_level_9 0

Core_2_LLC_total_access 329330
Core_2_LLC_total_hit 227021
Core_2_LLC_total_miss 102309
Core_2_LLC_loads 133187
Core_2_LLC_load_hit 57362
Core_2_LLC_load_miss 75825
Core_2_LLC_RFOs 60555
Core_2_LLC_RFO_hit 49348
Core_2_LLC_RFO_miss 11207
Core_2_LLC_prefetches 12110
Core_2_LLC_prefetch_hit 6193
Core_2_LLC_prefetch_miss 5917
Core_2_LLC_writebacks 123478
Core_2_LLC_writeback_hit 114118
Core_2_LLC_writeback_miss 9360
Core_2_LLC_prefetch_requested 0
Core_2_LLC_prefetch_dropped 0
Core_2_LLC_prefetch_issued 0
Core_2_LLC_prefetch_filled 301094
Core_2_LLC_prefetch_useful 185104
Core_2_LLC_prefetch_useless 105308
Core_2_LLC_prefetch_late 994
Core_2_LLC_average_miss_latency 1103.41845

Core_2_LLC_rq_access 2029409
Core_2_LLC_rq_forward 0
Core_2_LLC_rq_merged 0
Core_2_LLC_rq_to_cache 2029401
Core_2_LLC_rq_full 0

Core_2_LLC_wq_access 1456188
Core_2_LLC_wq_forward 8
Core_2_LLC_wq_merged 0
Core_2_LLC_wq_to_cache 1456188
Core_2_LLC_wq_full 0

Core_2_LLC_pq_access 4475919
Core_2_LLC_pq_forward 0
Core_2_LLC_pq_merged 6134
Core_2_LLC_pq_to_cache 4469785
Core_2_LLC_pq_full 0

Core_2_LLC_acc_epochs 1177478
Core_2_LLC_acc_level_0 1045860
Core_2_LLC_acc_level_1 40134
Core_2_LLC_acc_level_2 33969
Core_2_LLC_acc_level_3 6420
Core_2_LLC_acc_level_4 2867
Core_2_LLC_acc_level_5 28334
Core_2_LLC_acc_level_6 3658
Core_2_LLC_acc_level_7 3734
Core_2_LLC_acc_level_8 1803
Core_2_LLC_acc_level_9 10699

Core_2_major_page_fault 0
Core_2_minor_page_fault 3423

Core_3_instructions 150000001
Core_3_cycles 1016559215
Core_3_IPC 0.14756

Core_3_branch_prediction_accuracy 99.76176
Core_3_branch_MPKI 0.49193
Core_3_average_ROB_occupancy_at_mispredict 239.31329

Core_3_L1D_total_access 22580273
Core_3_L1D_total_hit 22258262
Core_3_L1D_total_miss 322011
Core_3_L1D_loads 13577921
Core_3_L1D_load_hit 13259630
Core_3_L1D_load_miss 318291
Core_3_L1D_RFOs 9002352
Core_3_L1D_RFO_hit 8998632
Core_3_L1D_RFO_miss 3720
Core_3_L1D_prefetches 0
Core_3_L1D_prefetch_hit 0
Core_3_L1D_prefetch_miss 0
Core_3_L1D_writebacks 0
Core_3_L1D_writeback_hit 0
Core_3_L1D_writeback_miss 0
Core_3_L1D_prefetch_requested 0
Core_3_L1D_prefetch_dropped 0
Core_3_L1D_prefetch_issued 0
Core_3_L1D_prefetch_filled 0
Core_3_L1D_prefetch_useful 0
Core_3_L1D_prefetch_useless 0
Core_3_L1D_prefetch_late 0
Core_3_L1D_average_miss_latency 183.93955

Core_3_L1D_rq_access 23242135
Core_3_L1D_rq_forward 0
Core_3_L1D_rq_merged 7556829
Core_3_L1D_rq_to_cache 15685272
Core_3_L1D_rq_full 0

Core_3_L1D_wq_access 10600326
Core_3_L1D_wq_forward 34
Core_3_L1D_wq_merged 177766
Core_3_L1D_wq_to_cache 10422560
Core_3_L1D_wq_full 0

Core_3_L1D_pq_access 0
Core_3_L1D_pq_forward 0
Core_3_L1D_pq_merged 0
Core_3_L1D_pq_to_cache 0
Core_3_L1D_pq_full 0

Core_3_L1D_acc_epochs 177614
Core_3_L1D_acc_level_0 177614
Core_3_L1D_acc_level_1 0
Core_3_L1D_acc_level_2 0
Core_3_L1D_acc_level_3 0
Core_3_L1D_acc_level_4 0
Core_3_L1D_acc_level_5 0
Core_3_L1D_acc_level_6 0
Core_3_L1D_acc_level_7 0
Core_3_L1D_acc_level_8 0
Core_3_L1D_acc_level_9 0

Core_3_L1I_total_access 42434089
Core_3_L1I_total_hit 42434087
Core_3_L1I_total_miss 2
Core_3_L1I_loads 42434089
Core_3_L1I_load_hit 42434087
Core_3_L1I_load_miss 2
Core_3_L1I_RFOs 0
Core_3_L1I_RFO_hit 0
Core_3_L1I_RFO_miss 0
Core_3_L1I_prefetches 0
Core_3_L1I_prefetch_hit 0
Core_3_L1I_prefetch_miss 0
Core_3_L1I_writebacks 0
Core_3_L1I_writeback_hit 0
Core_3_L1I_writeback_miss 0
Core_3_L1I_prefetch_requested 0
Core_3_L1I_prefetch_dropped 0
Core_3_L1I_prefetch_issued 0
Core_3_L1I_prefetch_filled 0
Core_3_L1I_prefetch_useful 0
Core_3_L1I_prefetch_useless 0
Core_3_L1I_prefetch_late 0
Core_3_L1I_average_miss_latency 237.00000

Core_3_L1I_rq_access 173423638
Core_3_L1I_rq_forward 0
Core_3_L1I_rq_merged 124418849
Core_3_L1I_rq_to_cache 49004789
Core_3_L1I_rq_full 0

Core_3_L1I_wq_access 0
Core_3_L1I_wq_forward 0
Core_3_L1I_wq_merged 0
Core_3_L1I_wq_to_cache 0
Core_3_L1I_wq_full 0

Core_3_L1I_pq_access 0
Core_3_L1I_pq_forward 0
Core_3_L1I_pq_merged 0
Core_3_L1I_pq_to_cache 0
Core_3_L1I_pq_full 0

Core_3_L1I_acc_epochs 177614
Core_3_L1I_acc_level_0 177614
Core_3_L1I_acc_level_1 0
Core_3_L1I_acc_level_2 0
Core_3_L1I_acc_level_3 0
Core_3_L1I_acc_level_4 0
Core_3_L1I_acc_level_5 0
Core_3_L1I_acc_level_6 0
Core_3_L1I_acc_level_7 0
Core_3_L1I_acc_level_8 0
Core_3_L1I_acc_level_9 0

Core_3_L2C_total_access 545220
Core_3_L2C_total_hit 247600
Core_3_L2C_total_miss 297620
Core_3_L2C_loads 318293
Core_3_L2C_load_hit 64671
Core_3_L2C_load_miss 253622
Core_3_L2C_RFOs 3720
Core_3_L2C_RFO_hit 328
Core_3_L2C_RFO_miss 3392
Core_3_L2C_prefetches 59474
Core_3_L2C_prefetch_hit 18960
Core_3_L2C_prefetch_miss 40514
Core_3_L2C_writebacks 163733
Core_3_L2C_writeback_hit 163641
Core_3_L2C_writeback_miss 92
Core_3_L2C_prefetch_requested 562149
Core_3_L2C_prefetch_dropped 0
Core_3_L2C_prefetch_issued 562149
Core_3_L2C_prefetch_filled 63059
Core_3_L2C_prefetch_useful 60818
Core_3_L2C_prefetch_useless 2221
Core_3_L2C_prefetch_late 681
Core_3_L2C_average_miss_latency 141.25142

Core_3_L2C_rq_access 370987
Core_3_L2C_rq_forward 0
Core_3_L2C_rq_merged 0
Core_3_L2C_rq_to_cache 370987
Core_3_L2C_rq_full 0

Core_3_L2C_wq_access 195267
Core_3_L2C_wq_forward 0
Core_3_L2C_wq_merged 0
Core_3_L2C_wq_to_cache 195267
Core_3_L2C_wq_full 0

Core_3_L2C_pq_access 562149
Core_3_L2C_pq_forward 0
Core_3_L2C_pq_merged 5832
Core_3_L2C_pq_to_cache 556317
Core_3_L2C_pq_full 0

Core_3_L2C_acc_epochs 177614
Core_3_L2C_acc_level_0 104013
Core_3_L2C_acc_level_1 18560
Core_3_L2C_acc_level_2 16580
Core_3_L2C_acc_level_3 6649
Core_3_L2C_acc_level_4 1658
Core_3_L2C_acc_level_5 15200
Core_3_L2C_acc_level_6 3347
Core_3_L2C_acc_level_7 2538
Core_3_L2C_acc_level_8 1343
Core_3_L2C_acc_level_9 7726

Core_3_LLC_total_access 751818
Core_3_LLC_total_hit 594148
Core_3_LLC_total_miss 157670
Core_3_LLC_loads 253008
Core_3_LLC_load_hit 162094
Core_3_LLC_load_miss 90914
Core_3_LLC_RFOs 3392
Core_3_LLC_RFO_hit 940
Core_3_LLC_RFO_miss 2452
Core_3_LLC_prefetches 340005
Core_3_LLC_prefetch_hit 279985
Core_3_LLC_prefetch_miss 60020
Core_3_LLC_writebacks 155413
Core_3_LLC_writeback_hit 151129
Core_3_LLC_writeback_miss 4284
Core_3_LLC_prefetch_requested 0
Core_3_LLC_prefetch_dropped 0
Core_3_LLC_prefetch_issued 0
Core_3_LLC_prefetch_filled 301094
Core_3_LLC_prefetch_useful 185104
Core_3_LLC_prefetch_useless 105308
Core_3_LLC_prefetch_late 994
Core_3_LLC_average_miss_latency 715.98680

Core_3_LLC_rq_access 2029409
Core_3_LLC_rq_forward 0
Core_3_LLC_rq_merged 0
Core_3_LLC_rq_to_cache 2029401
Core_3_LLC_rq_full 0

Core_3_LLC_wq_access 1456188
Core_3_LLC_wq_forward 8
Core_3_LLC_wq_merged 0
Core_3_LLC_wq_to_cache 1456188
Core_3_LLC_wq_full 0

Core_3_LLC_pq_access 4475919
Core_3_LLC_pq_forward 0
Core_3_LLC_pq_merged 6134
Core_3_LLC_pq_to_cache 4469785
Core_3_LLC_pq_full 0

Core_3_LLC_acc_epochs 1177478
Core_3_LLC_acc_level_0 1045860
Core_3_LLC_acc_level_1 40134
Core_3_LLC_acc_level_2 33969
Core_3_LLC_acc_level_3 6420
Core_3_LLC_acc_level_4 2867
Core_3_LLC_acc_level_5 28334
Core_3_LLC_acc_level_6 3658
Core_3_LLC_acc_level_7 3734
Core_3_LLC_acc_level_8 1803
Core_3_LLC_acc_level_9 10699

Core_3_major_page_fault 0
Core_3_minor_page_fault 1728

spp.pref.total 2257753
spp.pref.at_L2 299910
spp.pref.at_LLC 1957843

spp.depth.max 8
spp.depth.min 0
spp.depth.avg 1

spp.breadth.max 2
spp.breadth.min 0
spp.breadth.avg 0

delta_1 675792
delta_-2 650509
delta_-1 408066
delta_-12 400770
delta_2 163893
delta_4 2859
delta_6 679
delta_-5 377
delta_-8 345
delta_5 320
delta_3 294
delta_25 186
delta_46 142
delta_49 135
delta_16 117
delta_-7 115
delta_53 79
delta_-6 64
delta_13 62
delta_54 49
delta_10 41
delta_7 38
delta_50 34
delta_11 22
delta_47 18
delta_58 14
delta_12 14
delta_28 12
delta_-17 9
delta_52 6
delta_-63 6
delta_-3 6
delta_35 6
delta_-32 4
delta_51 4
delta_32 3
delta_26 3
delta_-18 2
delta_8 2
delta_-16 2
delta_31 2
delta_-11 2
delta_-23 1

depth_1_delta_-12 212385
depth_1_delta_1 169384
depth_1_delta_-2 140823
depth_1_delta_-1 90396
depth_1_delta_2 52790
depth_1_delta_4 2834
depth_1_delta_6 675
depth_1_delta_-5 375
depth_1_delta_-8 333
depth_1_delta_5 320
depth_1_delta_3 294
depth_1_delta_25 149
depth_1_delta_49 130
depth_1_delta_16 117
depth_1_delta_46 116
depth_1_delta_-7 115
depth_1_delta_-6 64
depth_1_delta_53 63
depth_1_delta_13 62
depth_1_delta_54 49
depth_1_delta_10 41
depth_1_delta_7 38
depth_1_delta_50 32
depth_1_delta_11 22
depth_1_delta_47 18
depth_1_delta_12 14
depth_1_delta_58 14
depth_1_delta_28 12
depth_1_delta_-17 9
depth_1_delta_52 6
depth_1_delta_-63 6
depth_1_delta_-3 6
depth_1_delta_35 6
depth_1_delta_-32 4
depth_1_delta_51 4
depth_1_delta_32 3
depth_1_delta_26 3
depth_1_delta_-18 2
depth_1_delta_8 2
depth_1_delta_-16 2
depth_1_delta_31 2
depth_1_delta_-11 2
depth_1_delta_-23 1
depth_2_delta_1 155928
depth_2_delta_-2 131356
depth_2_delta_-12 110570
depth_2_delta_-1 82685
depth_2_delta_2 47056
depth_2_delta_25 37
depth_2_delta_4 25
depth_2_delta_46 25
depth_2_delta_53 16
depth_2_delta_-8 12
depth_2_delta_49 5
depth_2_delta_6 4
depth_2_delta_50 2
depth_2_delta_-5 2
depth_3_delta_1 147643
depth_3_delta_-2 127930
depth_3_delta_-1 77738
depth_3_delta_-12 57156
depth_3_delta_2 43912
depth_3_delta_46 1
depth_4_delta_-2 114416
depth_4_delta_1 106360
depth_4_delta_-1 69745
depth_4_delta_-12 20634
depth_4_delta_2 19271
depth_5_delta_-2 88501
depth_5_delta_1 59536
depth_5_delta_-1 50979
depth_5_delta_2 800
depth_5_delta_-12 25
depth_6_delta_-2 41223
depth_6_delta_1 30141
depth_6_delta_-1 26115
depth_6_delta_2 63
depth_7_delta_-1 10112
depth_7_delta_1 6653
depth_7_delta_-2 6173
depth_7_delta_2 1
depth_8_delta_-1 296
depth_8_delta_1 147
depth_8_delta_-2 87

spp.pref.total 2119569
spp.pref.at_L2 267016
spp.pref.at_LLC 1852553

spp.depth.max 9
spp.depth.min 0
spp.depth.avg 1

spp.breadth.max 2
spp.breadth.min 0
spp.breadth.avg 0

delta_-2 659063
delta_1 625021
delta_-1 405755
delta_-12 342316
delta_2 131596
delta_4 3092
delta_49 860
delta_25 329
delta_3 273
delta_-18 138
delta_54 138
delta_13 78
delta_29 75
delta_16 60
delta_-19 59
delta_37 55
delta_7 29
delta_-28 27
delta_-6 26
delta_52 22
delta_11 21
delta_30 16
delta_8 11
delta_-4 11
delta_-32 11
delta_35 8
delta_28 8
delta_-63 6
delta_-50 5
delta_47 4
delta_-15 3
delta_9 3
delta_-8 2
delta_50 2
delta_56 1
delta_-11 1
delta_19 1
delta_-57 1
delta_-7 1
delta_-17 1
delta_-51 1
delta_-3 1

depth_1_delta_-12 200668
depth_1_delta_1 158136
depth_1_delta_-2 140177
depth_1_delta_-1 90519
depth_1_delta_2 45386
depth_1_delta_4 3092
depth_1_delta_49 739
depth_1_delta_3 273
depth_1_delta_25 252
depth_1_delta_-18 136
depth_1_delta_54 117
depth_1_delta_13 78
depth_1_delta_29 75
depth_1_delta_16 60
depth_1_delta_-19 59
depth_1_delta_37 55
depth_1_delta_7 29
depth_1_delta_-28 27
depth_1_delta_-6 26
depth_1_delta_52 22
depth_1_delta_11 21
depth_1_delta_30 16
depth_1_delta_8 11
depth_1_delta_-4 11
depth_1_delta_-32 11
depth_1_delta_35 8
depth_1_delta_28 8
depth_1_delta_-63 6
depth_1_delta_-50 5
depth_1_delta_47 4
depth_1_delta_-15 3
depth_1_delta_9 3
depth_1_delta_-8 2
depth_1_delta_50 2
depth_1_delta_56 1
depth_1_delta_-11 1
depth_1_delta_19 1
depth_1_delta_-57 1
depth_1_delta_-7 1
depth_1_delta_-17 1
depth_1_delta_-51 1
depth_1_delta_-3 1
depth_2_delta_1 144526
depth_2_delta_-2 131092
depth_2_delta_-12 90666
depth_2_delta_-1 84147
depth_2_delta_2 40750
depth_2_delta_49 109
depth_2_delta_25 77
depth_2_delta_54 18
depth_2_delta_-18 2
depth_3_delta_1 136404
depth_3_delta_-2 127228
depth_3_delta_-1 78490
depth_3_delta_-12 39733
depth_3_delta_2 37731
depth_3_delta_49 12
depth_3_delta_54 3
depth_4_delta_-2 114453
depth_4_delta_1 87070
depth_4_delta_-1 68864
depth_4_delta_-12 11241
depth_4_delta_2 7123
depth_5_delta_-2 91013
depth_5_delta_1 58835
depth_5_delta_-1 47471
depth_5_delta_2 561
depth_5_delta_-12 8
depth_6_delta_-2 46131
depth_6_delta_1 32338
depth_6_delta_-1 24993
depth_6_delta_2 44
depth_7_delta_-1 10368
depth_7_delta_-2 8668
depth_7_delta_1 7469
depth_7_delta_2 1
depth_8_delta_-1 888
depth_8_delta_-2 300
depth_8_delta_1 241
depth_9_delta_-1 15
depth_9_delta_1 2
depth_9_delta_-2 1

spp.pref.total 54952
spp.pref.at_L2 366
spp.pref.at_LLC 54586

spp.depth.max 3
spp.depth.min 0
spp.depth.avg 0

spp.breadth.max 2
spp.breadth.min 0
spp.breadth.avg 0

delta_1 32364
delta_-1 9987
delta_14 4747
delta_11 4418
delta_4 3186
delta_12 2293
delta_5 1451
delta_-2 560
delta_-10 483
delta_2 478
delta_17 466
delta_-3 422
delta_6 374
delta_-4 338
delta_27 325
delta_-5 309
delta_-9 284
delta_-16 258
delta_19 225
delta_-25 222
delta_3 215
delta_15 215
delta_22 208
delta_-24 206
delta_-12 187
delta_-47 171
delta_-15 158
delta_8 156
delta_9 152
delta_25 143
delta_24 141
delta_-21 140
delta_-27 132
delta_7 126
delta_-6 122
delta_10 121
delta_23 118
delta_16 110
delta_-7 107
delta_29 102
delta_-35 100
delta_-22 98
delta_30 95
delta_-31 89
delta_-11 80
delta_-8 76
delta_-17 71
delta_-18 71
delta_-23 68
delta_28 68
delta_-39 66
delta_21 61
delta_-36 59
delta_36 55
delta_-14 51
delta_-30 44
delta_-54 43
delta_40 34
delta_33 34
delta_-20 32
delta_41 31
delta_44 28
delta_-41 28
delta_-13 26
delta_-43 25
delta_18 24
delta_26 14
delta_13 12
delta_42 10
delta_-19 9
delta_51 8
delta_53 8
delta_20 6
delta_-32 6
delta_-45 4
delta_-29 2
delta_47 2

depth_1_delta_1 27492
depth_1_delta_-1 9514
depth_1_delta_11 4139
depth_1_delta_14 4089
depth_1_delta_4 3185
depth_1_delta_12 2127
depth_1_delta_5 1432
depth_1_delta_-2 558
depth_1_delta_-10 483
depth_1_delta_2 478
depth_1_delta_17 460
depth_1_delta_-3 421
depth_1_delta_6 374
depth_1_delta_-4 338
depth_1_delta_27 325
depth_1_delta_-5 309
depth_1_delta_-9 283
depth_1_delta_-16 254
depth_1_delta_19 225
depth_1_delta_-25 222
depth_1_delta_3 215
depth_1_delta_15 215
depth_1_delta_22 208
depth_1_delta_-24 206
depth_1_delta_-12 185
depth_1_delta_-47 170
depth_1_delta_-15 158
depth_1_delta_8 156
depth_1_delta_9 152
depth_1_delta_25 143
depth_1_delta_24 141
depth_1_delta_-21 140
depth_1_delta_-27 132
depth_1_delta_7 125
depth_1_delta_-6 122
depth_1_delta_10 121
depth_1_delta_23 118
depth_1_delta_16 110
depth_1_delta_-7 107
depth_1_delta_29 102
depth_1_delta_-35 99
depth_1_delta_-22 98
depth_1_delta_30 95
depth_1_delta_-31 89
depth_1_delta_-11 80
depth_1_delta_-8 76
depth_1_delta_-18 71
depth_1_delta_-17 70
depth_1_delta_-23 68
depth_1_delta_28 68
depth_1_delta_-39 66
depth_1_delta_21 61
depth_1_delta_-36 59
depth_1_delta_36 55
depth_1_delta_-14 51
depth_1_delta_-30 44
depth_1_delta_-54 43
depth_1_delta_40 34
depth_1_delta_33 34
depth_1_delta_-20 32
depth_1_delta_41 31
depth_1_delta_44 28
depth_1_delta_-41 28
depth_1_delta_-13 26
depth_1_delta_-43 25
depth_1_delta_18 24
depth_1_delta_26 14
depth_1_delta_13 12
depth_1_delta_42 10
depth_1_delta_-19 9
depth_1_delta_51 8
depth_1_delta_53 8
depth_1_delta_20 6
depth_1_delta_-32 6
depth_1_delta_-45 4
depth_1_delta_-29 2
depth_1_delta_47 2
depth_2_delta_1 4805
depth_2_delta_14 658
depth_2_delta_-1 472
depth_2_delta_11 271
depth_2_delta_12 166
depth_2_delta_5 19
depth_2_delta_17 6
depth_2_delta_-16 4
depth_2_delta_-2 2
depth_2_delta_-12 2
depth_2_delta_-3 1
depth_2_delta_-17 1
depth_2_delta_7 1
depth_2_delta_-35 1
depth_2_delta_-9 1
depth_2_delta_4 1
depth_2_delta_-47 1
depth_3_delta_1 67
depth_3_delta_11 8
depth_3_delta_-1 1

spp.pref.total 562149
spp.pref.at_L2 66869
spp.pref.at_LLC 495280

spp.depth.max 7
spp.depth.min 0
spp.depth.avg 1

spp.breadth.max 2
spp.breadth.min 0
spp.breadth.avg 0

delta_-1 285060
delta_-2 152970
delta_-12 85338
delta_1 26660
delta_-3 8182
delta_2 5634
delta_12 710
delta_15 524
delta_-17 462
delta_-20 457
delta_51 347
delta_-16 324
delta_-11 295
delta_18 280
delta_-14 271
delta_-19 259
delta_-13 217
delta_19 178
delta_13 89
delta_54 88
delta_50 83
delta_56 24
delta_53 18
delta_57 17
delta_-4 14
delta_52 13
delta_45 10
delta_6 3
delta_47 1
delta_23 1
delta_14 1

depth_1_delta_-1 79562
depth_1_delta_-2 68490
depth_1_delta_-12 52275
depth_1_delta_1 14057
depth_1_delta_2 5191
depth_1_delta_-3 4315
depth_1_delta_12 694
depth_1_delta_15 516
depth_1_delta_-17 462
depth_1_delta_-20 455
depth_1_delta_-16 317
depth_1_delta_-11 284
depth_1_delta_18 280
depth_1_delta_-14 271
depth_1_delta_51 264
depth_1_delta_-19 252
depth_1_delta_-13 217
depth_1_delta_19 174
depth_1_delta_13 89
depth_1_delta_54 87
depth_1_delta_50 81
depth_1_delta_56 24
depth_1_delta_53 18
depth_1_delta_57 17
depth_1_delta_-4 14
depth_1_delta_52 13
depth_1_delta_45 10
depth_1_delta_6 3
depth_1_delta_47 1
depth_1_delta_23 1
depth_1_delta_14 1
depth_2_delta_-1 80917
depth_2_delta_-2 53367
depth_2_delta_-12 22100
depth_2_delta_1 11672
depth_2_delta_-3 3809
depth_2_delta_2 383
depth_2_delta_51 80
depth_2_delta_12 16
depth_2_delta_-11 11
depth_2_delta_15 8
depth_2_delta_-16 7
depth_2_delta_-19 7
depth_2_delta_19 4
depth_2_delta_50 2
depth_2_delta_-20 2
depth_2_delta_54 1
depth_3_delta_-1 67756
depth_3_delta_-2 25002
depth_3_delta_-12 8941
depth_3_delta_1 841
depth_3_delta_2 59
depth_3_delta_-3 57
depth_3_delta_51 3
depth_4_delta_-1 32778
depth_4_delta_-2 4788
depth_4_delta_-12 2022
depth_4_delta_1 90
depth_4_delta_-3 1
depth_4_delta_2 1
depth_5_delta_-1 18714
depth_5_delta_-2 1210
depth_6_delta_-1 5291
depth_6_delta_-2 113
depth_7_delta_-1 42

Channel_0_RQ_row_buffer_hit 17344
Channel_0_RQ_row_buffer_miss 289258
Channel_0_WQ_row_buffer_hit 4454
Channel_0_WQ_row_buffer_miss 132741
Channel_0_WQ_full 0
Channel_0_dbus_congested 21185

Channel_1_RQ_row_buffer_hit 16722
Channel_1_RQ_row_buffer_miss 286039
Channel_1_WQ_row_buffer_hit 4361
Channel_1_WQ_row_buffer_miss 131793
Channel_1_WQ_full 0
Channel_1_dbus_congested 21046

avg_congested_cycle 8

DRAM_bw_pochs 4709912
DRAM_bw_level_0 4708571
DRAM_bw_level_1 870
DRAM_bw_level_2 439
DRAM_bw_level_3 32
