*************************************************
   ChampSim Multicore Out-of-Order Simulator
   Last compiled: Mar 31 2025 20:14:32
*************************************************
parsing config file: /data3/config/spp_dev2.ini

trace_0 /data3/CLOUD9/traces/cloud9_phase0_core0.trace.xz
trace_1 /data3/CLOUD9/traces/cloud9_phase0_core1.trace.xz
trace_2 /data3/CLOUD9/traces/cloud9_phase0_core2.trace.xz
trace_3 /data3/CLOUD9/traces/cloud9_phase0_core3.trace.xz
adding L2C_PREFETCHER: SPP_dev2
Initialize SIGNATURE TABLE
ST_SET: 1
ST_WAY: 256
ST_TAG_BIT: 16
ST_TAG_MASK: ffff

Initialize PATTERN TABLE
PT_SET: 512
PT_WAY: 4
SIG_DELTA_BIT: 7
C_SIG_BIT: 4
C_DELTA_BIT: 4

Initialize PREFETCH FILTER
FILTER_SET: 1024
fill_threshold: 90
pf_threshold: 40

adding L2C_PREFETCHER: SPP_dev2
Initialize SIGNATURE TABLE
ST_SET: 1
ST_WAY: 256
ST_TAG_BIT: 16
ST_TAG_MASK: ffff

Initialize PATTERN TABLE
PT_SET: 512
PT_WAY: 4
SIG_DELTA_BIT: 7
C_SIG_BIT: 4
C_DELTA_BIT: 4

Initialize PREFETCH FILTER
FILTER_SET: 1024
fill_threshold: 90
pf_threshold: 40

adding L2C_PREFETCHER: SPP_dev2
Initialize SIGNATURE TABLE
ST_SET: 1
ST_WAY: 256
ST_TAG_BIT: 16
ST_TAG_MASK: ffff

Initialize PATTERN TABLE
PT_SET: 512
PT_WAY: 4
SIG_DELTA_BIT: 7
C_SIG_BIT: 4
C_DELTA_BIT: 4

Initialize PREFETCH FILTER
FILTER_SET: 1024
fill_threshold: 90
pf_threshold: 40

adding L2C_PREFETCHER: SPP_dev2
Initialize SIGNATURE TABLE
ST_SET: 1
ST_WAY: 256
ST_TAG_BIT: 16
ST_TAG_MASK: ffff

Initialize PATTERN TABLE
PT_SET: 512
PT_WAY: 4
SIG_DELTA_BIT: 7
C_SIG_BIT: 4
C_DELTA_BIT: 4

Initialize PREFETCH FILTER
FILTER_SET: 1024
fill_threshold: 90
pf_threshold: 40

Initialize SHIP state
warmup_instructions 50000000
simulation_instructions 150000000
champsim_seed 7334
measure_ipc 0
measure_ipc_epoch 1000
measure_dram_bw 1
measure_dram_bw_epoch 256
measure_cache_acc 1
measure_cache_acc_epoch 1024
l1d_perfect 0
l2c_perfect 0
llc_perfect 0
l1d_semi_perfect 0
l2c_semi_perfect 0
llc_semi_perfect 0
semi_perfect_cache_page_buffer_size 64

num_cpus 4
cpu_freq 4000
dram_io_freq 2400
page_size 4096
block_size 64
max_read_per_cycle 8
max_fill_per_cycle 1
dram_channels 2
log2_dram_channels 1
dram_ranks 1
dram_banks 8
dram_rows 65536
dram_columns 128
dram_row_size 8
dram_size 8192
dram_pages 2097152

fetch_width 6
decode_width 6
exec_width 4
lq_width 2
sq_width 2
retire_width 4
scheduler_size 128
branch_mispredict_penalty 20
rob_size 256
lq_size 72
sq_size 56
num_instr_destinations_sparc 4
num_instr_destinations 2
num_instr_sources 4

itlb_set 16
itlb_way 8
itlb_rq_size 16
itlb_wq_size 16
itlb_pq_size 0
itlb_mshr_size 8
itlb_latency 1

dtlb_set 16
dtlb_way 4
dtlb_rq_size 16
dtlb_wq_size 16
dtlb_pq_size 0
dtlb_mshr_size 8
dtlb_latency 1

stlb_set 128
stlb_way 12
stlb_rq_size 32
stlb_wq_size 32
stlb_pq_size 0
stlb_mshr_size 16
stlb_latency 8

l1i_size 32
l1i_set 64
l1i_way 8
l1i_rq_size 64
l1i_wq_size 64
l1i_pq_size 8
l1i_mshr_size 8
l1i_latency 1

l1d_size 32
l1d_set 64
l1d_way 8
l1d_rq_size 64
l1d_wq_size 64
l1d_pq_size 8
l1d_mshr_size 16
l1d_latency 4

l2c_size 256
l2c_set 512
l2c_way 8
l2c_rq_size 32
l2c_wq_size 32
l2c_pq_size 32
l2c_mshr_size 32
l2c_latency 10

llc_size 8192
llc_set 8192
llc_way 16
llc_rq_size 128
llc_wq_size 128
llc_pq_size 128
llc_mshr_size 256
llc_latency 20

dram_channel_width 8
dram_wq_size 64
dram_rq_size 64
tRP 15
tRCD 15
tCAS 12.5
dram_dbus_turn_around_time 30
dram_write_high_wm 56
dram_write_low_wm 48
min_dram_writes_per_switch 16
dram_mtps 2400
dram_dbus_return_time 13


Heartbeat CPU  3 instructions:    1000000 cycles:     387337 heartbeat IPC: 2.58173 cumulative IPC: 2.58173 (Simulation time: 0 hr 0 min 6 sec) 
Heartbeat CPU  2 instructions:    1000000 cycles:     403851 heartbeat IPC: 2.47616 cumulative IPC: 2.47616 (Simulation time: 0 hr 0 min 6 sec) 
Heartbeat CPU  1 instructions:    1000000 cycles:     425019 heartbeat IPC: 2.35284 cumulative IPC: 2.35284 (Simulation time: 0 hr 0 min 7 sec) 
Heartbeat CPU  0 instructions:    1000002 cycles:     426866 heartbeat IPC: 2.34266 cumulative IPC: 2.34266 (Simulation time: 0 hr 0 min 7 sec) 
Heartbeat CPU  3 instructions:    2000002 cycles:     773853 heartbeat IPC: 2.58722 cumulative IPC: 2.58447 (Simulation time: 0 hr 0 min 12 sec) 
Heartbeat CPU  2 instructions:    2000001 cycles:     795412 heartbeat IPC: 2.55388 cumulative IPC: 2.51442 (Simulation time: 0 hr 0 min 12 sec) 
Heartbeat CPU  1 instructions:    2000002 cycles:     865790 heartbeat IPC: 2.26876 cumulative IPC: 2.31003 (Simulation time: 0 hr 0 min 13 sec) 
Heartbeat CPU  0 instructions:    2000002 cycles:     896016 heartbeat IPC: 2.13151 cumulative IPC: 2.23211 (Simulation time: 0 hr 0 min 14 sec) 
Heartbeat CPU  3 instructions:    3000001 cycles:    1160587 heartbeat IPC: 2.58575 cumulative IPC: 2.58490 (Simulation time: 0 hr 0 min 18 sec) 
Heartbeat CPU  2 instructions:    3000001 cycles:    1198085 heartbeat IPC: 2.48340 cumulative IPC: 2.50400 (Simulation time: 0 hr 0 min 18 sec) 
Heartbeat CPU  1 instructions:    3000003 cycles:    1260523 heartbeat IPC: 2.53336 cumulative IPC: 2.37997 (Simulation time: 0 hr 0 min 19 sec) 
Heartbeat CPU  0 instructions:    3000000 cycles:    1380296 heartbeat IPC: 2.06492 cumulative IPC: 2.17345 (Simulation time: 0 hr 0 min 21 sec) 
Heartbeat CPU  3 instructions:    4000000 cycles:    1546280 heartbeat IPC: 2.59273 cumulative IPC: 2.58685 (Simulation time: 0 hr 0 min 24 sec) 
Heartbeat CPU  2 instructions:    4000000 cycles:    1596798 heartbeat IPC: 2.50807 cumulative IPC: 2.50501 (Simulation time: 0 hr 0 min 24 sec) 
Heartbeat CPU  1 instructions:    4000000 cycles:    1655961 heartbeat IPC: 2.52883 cumulative IPC: 2.41552 (Simulation time: 0 hr 0 min 25 sec) 
Heartbeat CPU  0 instructions:    4000000 cycles:    1819440 heartbeat IPC: 2.27716 cumulative IPC: 2.19848 (Simulation time: 0 hr 0 min 28 sec) 
Heartbeat CPU  3 instructions:    5000002 cycles:    1932779 heartbeat IPC: 2.58733 cumulative IPC: 2.58695 (Simulation time: 0 hr 0 min 30 sec) 
Heartbeat CPU  2 instructions:    5000002 cycles:    1998716 heartbeat IPC: 2.48807 cumulative IPC: 2.50161 (Simulation time: 0 hr 0 min 31 sec) 
Heartbeat CPU  1 instructions:    5000003 cycles:    2051458 heartbeat IPC: 2.52847 cumulative IPC: 2.43729 (Simulation time: 0 hr 0 min 32 sec) 
Heartbeat CPU  0 instructions:    5000002 cycles:    2264674 heartbeat IPC: 2.24601 cumulative IPC: 2.20782 (Simulation time: 0 hr 0 min 35 sec) 
Heartbeat CPU  3 instructions:    6000003 cycles:    2318164 heartbeat IPC: 2.59481 cumulative IPC: 2.58826 (Simulation time: 0 hr 0 min 36 sec) 
Heartbeat CPU  2 instructions:    6000002 cycles:    2401210 heartbeat IPC: 2.48451 cumulative IPC: 2.49874 (Simulation time: 0 hr 0 min 37 sec) 
Heartbeat CPU  1 instructions:    6000001 cycles:    2608003 heartbeat IPC: 1.79680 cumulative IPC: 2.30061 (Simulation time: 0 hr 0 min 40 sec) 
Heartbeat CPU  3 instructions:    7000003 cycles:    2708496 heartbeat IPC: 2.56192 cumulative IPC: 2.58446 (Simulation time: 0 hr 0 min 41 sec) 
Heartbeat CPU  0 instructions:    6000001 cycles:    2730955 heartbeat IPC: 2.14463 cumulative IPC: 2.19703 (Simulation time: 0 hr 0 min 42 sec) 
Heartbeat CPU  2 instructions:    7000002 cycles:    2805079 heartbeat IPC: 2.47605 cumulative IPC: 2.49547 (Simulation time: 0 hr 0 min 43 sec) 
Heartbeat CPU  1 instructions:    7000001 cycles:    3016860 heartbeat IPC: 2.44584 cumulative IPC: 2.32029 (Simulation time: 0 hr 0 min 46 sec) 
Heartbeat CPU  3 instructions:    8000000 cycles:    3096673 heartbeat IPC: 2.57614 cumulative IPC: 2.58342 (Simulation time: 0 hr 0 min 48 sec) 
Heartbeat CPU  0 instructions:    7000003 cycles:    3175176 heartbeat IPC: 2.25114 cumulative IPC: 2.20460 (Simulation time: 0 hr 0 min 49 sec) 
Heartbeat CPU  2 instructions:    8000000 cycles:    3207648 heartbeat IPC: 2.48404 cumulative IPC: 2.49404 (Simulation time: 0 hr 0 min 49 sec) 
Heartbeat CPU  1 instructions:    8000000 cycles:    3413601 heartbeat IPC: 2.52053 cumulative IPC: 2.34357 (Simulation time: 0 hr 0 min 53 sec) 
Heartbeat CPU  3 instructions:    9000001 cycles:    3483333 heartbeat IPC: 2.58625 cumulative IPC: 2.58373 (Simulation time: 0 hr 0 min 54 sec) 
Heartbeat CPU  2 instructions:    9000002 cycles:    3609476 heartbeat IPC: 2.48863 cumulative IPC: 2.49344 (Simulation time: 0 hr 0 min 56 sec) 
Heartbeat CPU  0 instructions:    8000000 cycles:    3671454 heartbeat IPC: 2.01499 cumulative IPC: 2.17897 (Simulation time: 0 hr 0 min 57 sec) 
Heartbeat CPU  1 instructions:    9000003 cycles:    3816651 heartbeat IPC: 2.48109 cumulative IPC: 2.35809 (Simulation time: 0 hr 0 min 59 sec) 
Heartbeat CPU  3 instructions:   10000000 cycles:    3869995 heartbeat IPC: 2.58624 cumulative IPC: 2.58398 (Simulation time: 0 hr 1 min 0 sec) 
Heartbeat CPU  2 instructions:   10000003 cycles:    4009353 heartbeat IPC: 2.50077 cumulative IPC: 2.49417 (Simulation time: 0 hr 1 min 2 sec) 
Heartbeat CPU  0 instructions:    9000002 cycles:    4104068 heartbeat IPC: 2.31153 cumulative IPC: 2.19295 (Simulation time: 0 hr 1 min 3 sec) 
Heartbeat CPU  3 instructions:   11000000 cycles:    4257174 heartbeat IPC: 2.58278 cumulative IPC: 2.58387 (Simulation time: 0 hr 1 min 6 sec) 
Heartbeat CPU  1 instructions:   10000000 cycles:    4282893 heartbeat IPC: 2.14480 cumulative IPC: 2.33487 (Simulation time: 0 hr 1 min 6 sec) 
Heartbeat CPU  2 instructions:   11000001 cycles:    4411519 heartbeat IPC: 2.48653 cumulative IPC: 2.49347 (Simulation time: 0 hr 1 min 8 sec) 
Heartbeat CPU  0 instructions:   10000003 cycles:    4537936 heartbeat IPC: 2.30485 cumulative IPC: 2.20365 (Simulation time: 0 hr 1 min 10 sec) 
Heartbeat CPU  3 instructions:   12000000 cycles:    4644171 heartbeat IPC: 2.58400 cumulative IPC: 2.58388 (Simulation time: 0 hr 1 min 12 sec) 
Heartbeat CPU  1 instructions:   11000001 cycles:    4772318 heartbeat IPC: 2.04322 cumulative IPC: 2.30496 (Simulation time: 0 hr 1 min 14 sec) 
Heartbeat CPU  2 instructions:   12000000 cycles:    4812307 heartbeat IPC: 2.49508 cumulative IPC: 2.49361 (Simulation time: 0 hr 1 min 14 sec) 
Heartbeat CPU  0 instructions:   11000003 cycles:    4969652 heartbeat IPC: 2.31634 cumulative IPC: 2.21344 (Simulation time: 0 hr 1 min 17 sec) 
Heartbeat CPU  3 instructions:   13000003 cycles:    5030221 heartbeat IPC: 2.59035 cumulative IPC: 2.58438 (Simulation time: 0 hr 1 min 18 sec) 
Heartbeat CPU  1 instructions:   12000000 cycles:    5183740 heartbeat IPC: 2.43059 cumulative IPC: 2.31493 (Simulation time: 0 hr 1 min 20 sec) 
Heartbeat CPU  2 instructions:   13000000 cycles:    5213370 heartbeat IPC: 2.49337 cumulative IPC: 2.49359 (Simulation time: 0 hr 1 min 21 sec) 
Heartbeat CPU  0 instructions:   12000000 cycles:    5405734 heartbeat IPC: 2.29314 cumulative IPC: 2.21987 (Simulation time: 0 hr 1 min 24 sec) 
Heartbeat CPU  3 instructions:   14000002 cycles:    5416717 heartbeat IPC: 2.58735 cumulative IPC: 2.58459 (Simulation time: 0 hr 1 min 24 sec) 
Heartbeat CPU  1 instructions:   13000001 cycles:    5599433 heartbeat IPC: 2.40562 cumulative IPC: 2.32166 (Simulation time: 0 hr 1 min 27 sec) 
Heartbeat CPU  2 instructions:   14000001 cycles:    5614409 heartbeat IPC: 2.49353 cumulative IPC: 2.49358 (Simulation time: 0 hr 1 min 27 sec) 
Heartbeat CPU  3 instructions:   15000001 cycles:    5804454 heartbeat IPC: 2.57907 cumulative IPC: 2.58422 (Simulation time: 0 hr 1 min 29 sec) 
Heartbeat CPU  2 instructions:   15000002 cycles:    6015115 heartbeat IPC: 2.49560 cumulative IPC: 2.49372 (Simulation time: 0 hr 1 min 33 sec) 
Heartbeat CPU  0 instructions:   13000000 cycles:    6016661 heartbeat IPC: 1.63686 cumulative IPC: 2.16067 (Simulation time: 0 hr 1 min 33 sec) 
Heartbeat CPU  1 instructions:   14000001 cycles:    6030178 heartbeat IPC: 2.32156 cumulative IPC: 2.32166 (Simulation time: 0 hr 1 min 33 sec) 
Heartbeat CPU  3 instructions:   16000000 cycles:    6185439 heartbeat IPC: 2.62477 cumulative IPC: 2.58672 (Simulation time: 0 hr 1 min 35 sec) 
Heartbeat CPU  2 instructions:   16000000 cycles:    6415230 heartbeat IPC: 2.49928 cumulative IPC: 2.49406 (Simulation time: 0 hr 1 min 39 sec) 
Heartbeat CPU  1 instructions:   15000001 cycles:    6432530 heartbeat IPC: 2.48539 cumulative IPC: 2.33190 (Simulation time: 0 hr 1 min 39 sec) 
Heartbeat CPU  0 instructions:   14000002 cycles:    6453753 heartbeat IPC: 2.28785 cumulative IPC: 2.16928 (Simulation time: 0 hr 1 min 40 sec) 
Heartbeat CPU  3 instructions:   17000002 cycles:    6571404 heartbeat IPC: 2.59091 cumulative IPC: 2.58697 (Simulation time: 0 hr 1 min 42 sec) 
Heartbeat CPU  2 instructions:   17000001 cycles:    6816682 heartbeat IPC: 2.49096 cumulative IPC: 2.49388 (Simulation time: 0 hr 1 min 45 sec) 
Heartbeat CPU  0 instructions:   15000003 cycles:    6891249 heartbeat IPC: 2.28574 cumulative IPC: 2.17667 (Simulation time: 0 hr 1 min 46 sec) 
Heartbeat CPU  1 instructions:   16000000 cycles:    6901642 heartbeat IPC: 2.13169 cumulative IPC: 2.31829 (Simulation time: 0 hr 1 min 47 sec) 
Heartbeat CPU  3 instructions:   18000003 cycles:    6960434 heartbeat IPC: 2.57050 cumulative IPC: 2.58605 (Simulation time: 0 hr 1 min 48 sec) 
Heartbeat CPU  2 instructions:   18000001 cycles:    7218043 heartbeat IPC: 2.49152 cumulative IPC: 2.49375 (Simulation time: 0 hr 1 min 52 sec) 
Heartbeat CPU  1 instructions:   17000003 cycles:    7297376 heartbeat IPC: 2.52696 cumulative IPC: 2.32960 (Simulation time: 0 hr 1 min 53 sec) 
Heartbeat CPU  0 instructions:   16000000 cycles:    7326200 heartbeat IPC: 2.29910 cumulative IPC: 2.18394 (Simulation time: 0 hr 1 min 53 sec) 
Heartbeat CPU  3 instructions:   19000003 cycles:    7349984 heartbeat IPC: 2.56706 cumulative IPC: 2.58504 (Simulation time: 0 hr 1 min 54 sec) 
Heartbeat CPU  2 instructions:   19000003 cycles:    7618740 heartbeat IPC: 2.49566 cumulative IPC: 2.49385 (Simulation time: 0 hr 1 min 58 sec) 
Heartbeat CPU  1 instructions:   18000001 cycles:    7692561 heartbeat IPC: 2.53046 cumulative IPC: 2.33992 (Simulation time: 0 hr 1 min 59 sec) 
Heartbeat CPU  3 instructions:   20000000 cycles:    7738515 heartbeat IPC: 2.57379 cumulative IPC: 2.58448 (Simulation time: 0 hr 2 min 0 sec) 
Heartbeat CPU  0 instructions:   17000001 cycles:    7790625 heartbeat IPC: 2.15320 cumulative IPC: 2.18211 (Simulation time: 0 hr 2 min 0 sec) 
Heartbeat CPU  2 instructions:   20000000 cycles:    8018930 heartbeat IPC: 2.49881 cumulative IPC: 2.49410 (Simulation time: 0 hr 2 min 4 sec) 
Heartbeat CPU  1 instructions:   19000000 cycles:    8088147 heartbeat IPC: 2.52789 cumulative IPC: 2.34912 (Simulation time: 0 hr 2 min 5 sec) 
Heartbeat CPU  3 instructions:   21000003 cycles:    8125786 heartbeat IPC: 2.58218 cumulative IPC: 2.58437 (Simulation time: 0 hr 2 min 6 sec) 
Heartbeat CPU  0 instructions:   18000000 cycles:    8233598 heartbeat IPC: 2.25747 cumulative IPC: 2.18616 (Simulation time: 0 hr 2 min 7 sec) 
Heartbeat CPU  2 instructions:   21000003 cycles:    8420159 heartbeat IPC: 2.49235 cumulative IPC: 2.49401 (Simulation time: 0 hr 2 min 10 sec) 
Heartbeat CPU  1 instructions:   20000000 cycles:    8483317 heartbeat IPC: 2.53056 cumulative IPC: 2.35757 (Simulation time: 0 hr 2 min 11 sec) 
Heartbeat CPU  3 instructions:   22000000 cycles:    8512435 heartbeat IPC: 2.58632 cumulative IPC: 2.58445 (Simulation time: 0 hr 2 min 12 sec) 
Heartbeat CPU  0 instructions:   19000000 cycles:    8672320 heartbeat IPC: 2.27935 cumulative IPC: 2.19088 (Simulation time: 0 hr 2 min 14 sec) 
Heartbeat CPU  2 instructions:   22000001 cycles:    8821415 heartbeat IPC: 2.49217 cumulative IPC: 2.49393 (Simulation time: 0 hr 2 min 16 sec) 
Heartbeat CPU  3 instructions:   23000002 cycles:    8900865 heartbeat IPC: 2.57447 cumulative IPC: 2.58402 (Simulation time: 0 hr 2 min 17 sec) 
Heartbeat CPU  1 instructions:   21000002 cycles:    9041027 heartbeat IPC: 1.79305 cumulative IPC: 2.32275 (Simulation time: 0 hr 2 min 20 sec) 
Heartbeat CPU  0 instructions:   20000000 cycles:    9119451 heartbeat IPC: 2.23648 cumulative IPC: 2.19311 (Simulation time: 0 hr 2 min 21 sec) 
Heartbeat CPU  2 instructions:   23000000 cycles:    9223799 heartbeat IPC: 2.48519 cumulative IPC: 2.49355 (Simulation time: 0 hr 2 min 22 sec) 
Heartbeat CPU  3 instructions:   24000000 cycles:    9287636 heartbeat IPC: 2.58550 cumulative IPC: 2.58408 (Simulation time: 0 hr 2 min 23 sec) 
Heartbeat CPU  1 instructions:   22000000 cycles:    9437729 heartbeat IPC: 2.52078 cumulative IPC: 2.33107 (Simulation time: 0 hr 2 min 26 sec) 
Heartbeat CPU  0 instructions:   21000003 cycles:    9579463 heartbeat IPC: 2.17386 cumulative IPC: 2.19219 (Simulation time: 0 hr 2 min 28 sec) 
Heartbeat CPU  2 instructions:   24000000 cycles:    9624871 heartbeat IPC: 2.49332 cumulative IPC: 2.49354 (Simulation time: 0 hr 2 min 29 sec) 
Heartbeat CPU  3 instructions:   25000003 cycles:    9675111 heartbeat IPC: 2.58082 cumulative IPC: 2.58395 (Simulation time: 0 hr 2 min 30 sec) 
Heartbeat CPU  1 instructions:   23000002 cycles:    9833329 heartbeat IPC: 2.52781 cumulative IPC: 2.33898 (Simulation time: 0 hr 2 min 32 sec) 
Heartbeat CPU  0 instructions:   22000002 cycles:   10016467 heartbeat IPC: 2.28831 cumulative IPC: 2.19638 (Simulation time: 0 hr 2 min 35 sec) 
Heartbeat CPU  2 instructions:   25000000 cycles:   10027091 heartbeat IPC: 2.48620 cumulative IPC: 2.49325 (Simulation time: 0 hr 2 min 35 sec) 
Heartbeat CPU  3 instructions:   26000003 cycles:   10059150 heartbeat IPC: 2.60390 cumulative IPC: 2.58471 (Simulation time: 0 hr 2 min 36 sec) 
Heartbeat CPU  1 instructions:   24000000 cycles:   10247141 heartbeat IPC: 2.41655 cumulative IPC: 2.34212 (Simulation time: 0 hr 2 min 39 sec) 
Heartbeat CPU  2 instructions:   26000003 cycles:   10429522 heartbeat IPC: 2.48491 cumulative IPC: 2.49292 (Simulation time: 0 hr 2 min 41 sec) 
Heartbeat CPU  3 instructions:   27000000 cycles:   10448205 heartbeat IPC: 2.57032 cumulative IPC: 2.58418 (Simulation time: 0 hr 2 min 42 sec) 
Heartbeat CPU  0 instructions:   23000000 cycles:   10517089 heartbeat IPC: 1.99751 cumulative IPC: 2.18692 (Simulation time: 0 hr 2 min 43 sec) 
Heartbeat CPU  1 instructions:   25000003 cycles:   10712221 heartbeat IPC: 2.15017 cumulative IPC: 2.33378 (Simulation time: 0 hr 2 min 46 sec) 
Heartbeat CPU  2 instructions:   27000003 cycles:   10833704 heartbeat IPC: 2.47413 cumulative IPC: 2.49222 (Simulation time: 0 hr 2 min 47 sec) 
Heartbeat CPU  3 instructions:   28000000 cycles:   10836466 heartbeat IPC: 2.57559 cumulative IPC: 2.58387 (Simulation time: 0 hr 2 min 47 sec) 
Heartbeat CPU  0 instructions:   24000000 cycles:   10946549 heartbeat IPC: 2.32851 cumulative IPC: 2.19247 (Simulation time: 0 hr 2 min 49 sec) 
Heartbeat CPU  1 instructions:   26000000 cycles:   11156945 heartbeat IPC: 2.24858 cumulative IPC: 2.33039 (Simulation time: 0 hr 2 min 52 sec) 
Heartbeat CPU  3 instructions:   29000000 cycles:   11223641 heartbeat IPC: 2.58281 cumulative IPC: 2.58383 (Simulation time: 0 hr 2 min 53 sec) 
Heartbeat CPU  2 instructions:   28000000 cycles:   11239496 heartbeat IPC: 2.46431 cumulative IPC: 2.49121 (Simulation time: 0 hr 2 min 54 sec) 
Heartbeat CPU  0 instructions:   25000000 cycles:   11383423 heartbeat IPC: 2.28899 cumulative IPC: 2.19618 (Simulation time: 0 hr 2 min 56 sec) 
Heartbeat CPU  1 instructions:   27000000 cycles:   11567147 heartbeat IPC: 2.43782 cumulative IPC: 2.33420 (Simulation time: 0 hr 2 min 59 sec) 
Heartbeat CPU  3 instructions:   30000000 cycles:   11610810 heartbeat IPC: 2.58285 cumulative IPC: 2.58380 (Simulation time: 0 hr 3 min 0 sec) 
Heartbeat CPU  2 instructions:   29000000 cycles:   11639308 heartbeat IPC: 2.50118 cumulative IPC: 2.49156 (Simulation time: 0 hr 3 min 0 sec) 
Heartbeat CPU  0 instructions:   26000000 cycles:   11815143 heartbeat IPC: 2.31632 cumulative IPC: 2.20057 (Simulation time: 0 hr 3 min 3 sec) 
Heartbeat CPU  1 instructions:   28000000 cycles:   11982787 heartbeat IPC: 2.40593 cumulative IPC: 2.33669 (Simulation time: 0 hr 3 min 6 sec) 
Heartbeat CPU  3 instructions:   31000001 cycles:   12000186 heartbeat IPC: 2.56821 cumulative IPC: 2.58329 (Simulation time: 0 hr 3 min 6 sec) 
Heartbeat CPU  2 instructions:   30000002 cycles:   12041892 heartbeat IPC: 2.48396 cumulative IPC: 2.49130 (Simulation time: 0 hr 3 min 7 sec) 
Heartbeat CPU  0 instructions:   27000003 cycles:   12258564 heartbeat IPC: 2.25520 cumulative IPC: 2.20254 (Simulation time: 0 hr 3 min 10 sec) 
Heartbeat CPU  3 instructions:   32000000 cycles:   12388526 heartbeat IPC: 2.57506 cumulative IPC: 2.58304 (Simulation time: 0 hr 3 min 12 sec) 
Heartbeat CPU  1 instructions:   29000000 cycles:   12409601 heartbeat IPC: 2.34294 cumulative IPC: 2.33690 (Simulation time: 0 hr 3 min 12 sec) 
Heartbeat CPU  2 instructions:   31000003 cycles:   12442926 heartbeat IPC: 2.49356 cumulative IPC: 2.49138 (Simulation time: 0 hr 3 min 13 sec) 
Heartbeat CPU  3 instructions:   33000002 cycles:   12777130 heartbeat IPC: 2.57332 cumulative IPC: 2.58274 (Simulation time: 0 hr 3 min 18 sec) 
Heartbeat CPU  1 instructions:   30000000 cycles:   12806270 heartbeat IPC: 2.52099 cumulative IPC: 2.34260 (Simulation time: 0 hr 3 min 18 sec) 
Heartbeat CPU  2 instructions:   32000000 cycles:   12843890 heartbeat IPC: 2.49398 cumulative IPC: 2.49146 (Simulation time: 0 hr 3 min 19 sec) 
Heartbeat CPU  0 instructions:   28000000 cycles:   12860751 heartbeat IPC: 1.66061 cumulative IPC: 2.17717 (Simulation time: 0 hr 3 min 19 sec) 
Heartbeat CPU  3 instructions:   34000000 cycles:   13164818 heartbeat IPC: 2.57939 cumulative IPC: 2.58264 (Simulation time: 0 hr 3 min 24 sec) 
Heartbeat CPU  2 instructions:   33000003 cycles:   13245695 heartbeat IPC: 2.48878 cumulative IPC: 2.49138 (Simulation time: 0 hr 3 min 25 sec) 
Heartbeat CPU  1 instructions:   31000001 cycles:   13271757 heartbeat IPC: 2.14829 cumulative IPC: 2.33579 (Simulation time: 0 hr 3 min 25 sec) 
Heartbeat CPU  0 instructions:   29000003 cycles:   13298457 heartbeat IPC: 2.28465 cumulative IPC: 2.18070 (Simulation time: 0 hr 3 min 26 sec) 
Heartbeat CPU  3 instructions:   35000000 cycles:   13552534 heartbeat IPC: 2.57921 cumulative IPC: 2.58254 (Simulation time: 0 hr 3 min 30 sec) 
Heartbeat CPU  2 instructions:   34000000 cycles:   13647702 heartbeat IPC: 2.48751 cumulative IPC: 2.49126 (Simulation time: 0 hr 3 min 31 sec) 
Heartbeat CPU  1 instructions:   32000000 cycles:   13667375 heartbeat IPC: 2.52769 cumulative IPC: 2.34134 (Simulation time: 0 hr 3 min 32 sec) 
Heartbeat CPU  0 instructions:   30000000 cycles:   13735322 heartbeat IPC: 2.28903 cumulative IPC: 2.18415 (Simulation time: 0 hr 3 min 33 sec) 
Heartbeat CPU  3 instructions:   36000000 cycles:   13941575 heartbeat IPC: 2.57042 cumulative IPC: 2.58220 (Simulation time: 0 hr 3 min 36 sec) 
Heartbeat CPU  2 instructions:   35000001 cycles:   14049698 heartbeat IPC: 2.48759 cumulative IPC: 2.49116 (Simulation time: 0 hr 3 min 38 sec) 
Heartbeat CPU  1 instructions:   33000001 cycles:   14063241 heartbeat IPC: 2.52611 cumulative IPC: 2.34654 (Simulation time: 0 hr 3 min 38 sec) 
Heartbeat CPU  0 instructions:   31000002 cycles:   14179975 heartbeat IPC: 2.24895 cumulative IPC: 2.18618 (Simulation time: 0 hr 3 min 40 sec) 
Heartbeat CPU  3 instructions:   37000000 cycles:   14327866 heartbeat IPC: 2.58872 cumulative IPC: 2.58238 (Simulation time: 0 hr 3 min 42 sec) 
Heartbeat CPU  2 instructions:   36000000 cycles:   14451174 heartbeat IPC: 2.49081 cumulative IPC: 2.49115 (Simulation time: 0 hr 3 min 44 sec) 
Heartbeat CPU  1 instructions:   34000003 cycles:   14459352 heartbeat IPC: 2.52455 cumulative IPC: 2.35142 (Simulation time: 0 hr 3 min 44 sec) 
Heartbeat CPU  0 instructions:   32000000 cycles:   14639510 heartbeat IPC: 2.17611 cumulative IPC: 2.18587 (Simulation time: 0 hr 3 min 47 sec) 
Heartbeat CPU  3 instructions:   38000003 cycles:   14716102 heartbeat IPC: 2.57576 cumulative IPC: 2.58221 (Simulation time: 0 hr 3 min 48 sec) 
Heartbeat CPU  2 instructions:   37000000 cycles:   14851785 heartbeat IPC: 2.49619 cumulative IPC: 2.49128 (Simulation time: 0 hr 3 min 50 sec) 
Heartbeat CPU  1 instructions:   35000002 cycles:   14853825 heartbeat IPC: 2.53503 cumulative IPC: 2.35630 (Simulation time: 0 hr 3 min 50 sec) 
Heartbeat CPU  0 instructions:   33000001 cycles:   15070461 heartbeat IPC: 2.32045 cumulative IPC: 2.18971 (Simulation time: 0 hr 3 min 53 sec) 
Heartbeat CPU  3 instructions:   39000002 cycles:   15103075 heartbeat IPC: 2.58416 cumulative IPC: 2.58226 (Simulation time: 0 hr 3 min 54 sec) 
Heartbeat CPU  2 instructions:   38000003 cycles:   15251872 heartbeat IPC: 2.49946 cumulative IPC: 2.49150 (Simulation time: 0 hr 3 min 56 sec) 
Heartbeat CPU  1 instructions:   36000000 cycles:   15411808 heartbeat IPC: 1.79217 cumulative IPC: 2.33587 (Simulation time: 0 hr 3 min 58 sec) 
Heartbeat CPU  3 instructions:   40000000 cycles:   15490392 heartbeat IPC: 2.58186 cumulative IPC: 2.58225 (Simulation time: 0 hr 4 min 0 sec) 
Heartbeat CPU  0 instructions:   34000000 cycles:   15515439 heartbeat IPC: 2.24730 cumulative IPC: 2.19137 (Simulation time: 0 hr 4 min 0 sec) 
Heartbeat CPU  2 instructions:   39000000 cycles:   15653722 heartbeat IPC: 2.48848 cumulative IPC: 2.49142 (Simulation time: 0 hr 4 min 2 sec) 
Heartbeat CPU  1 instructions:   37000000 cycles:   15810503 heartbeat IPC: 2.50818 cumulative IPC: 2.34022 (Simulation time: 0 hr 4 min 5 sec) 
Heartbeat CPU  3 instructions:   41000000 cycles:   15873016 heartbeat IPC: 2.61353 cumulative IPC: 2.58300 (Simulation time: 0 hr 4 min 6 sec) 
Heartbeat CPU  0 instructions:   35000003 cycles:   15980165 heartbeat IPC: 2.15181 cumulative IPC: 2.19022 (Simulation time: 0 hr 4 min 8 sec) 
Heartbeat CPU  2 instructions:   40000000 cycles:   16054992 heartbeat IPC: 2.49209 cumulative IPC: 2.49144 (Simulation time: 0 hr 4 min 9 sec) 
Heartbeat CPU  1 instructions:   38000000 cycles:   16205231 heartbeat IPC: 2.53339 cumulative IPC: 2.34492 (Simulation time: 0 hr 4 min 11 sec) 
Heartbeat CPU  3 instructions:   42000003 cycles:   16256709 heartbeat IPC: 2.60626 cumulative IPC: 2.58355 (Simulation time: 0 hr 4 min 12 sec) 
Heartbeat CPU  0 instructions:   36000000 cycles:   16413433 heartbeat IPC: 2.30803 cumulative IPC: 2.19333 (Simulation time: 0 hr 4 min 14 sec) 
Heartbeat CPU  2 instructions:   41000000 cycles:   16454701 heartbeat IPC: 2.50182 cumulative IPC: 2.49169 (Simulation time: 0 hr 4 min 15 sec) 
Heartbeat CPU  1 instructions:   39000000 cycles:   16633104 heartbeat IPC: 2.33714 cumulative IPC: 2.34472 (Simulation time: 0 hr 4 min 18 sec) 
Heartbeat CPU  3 instructions:   43000001 cycles:   16644748 heartbeat IPC: 2.57706 cumulative IPC: 2.58340 (Simulation time: 0 hr 4 min 18 sec) 
Heartbeat CPU  0 instructions:   37000000 cycles:   16847127 heartbeat IPC: 2.30577 cumulative IPC: 2.19622 (Simulation time: 0 hr 4 min 21 sec) 
Heartbeat CPU  2 instructions:   42000002 cycles:   16855733 heartbeat IPC: 2.49357 cumulative IPC: 2.49173 (Simulation time: 0 hr 4 min 21 sec) 
Heartbeat CPU  3 instructions:   44000000 cycles:   17032466 heartbeat IPC: 2.57919 cumulative IPC: 2.58330 (Simulation time: 0 hr 4 min 24 sec) 
Heartbeat CPU  1 instructions:   40000000 cycles:   17101066 heartbeat IPC: 2.13693 cumulative IPC: 2.33904 (Simulation time: 0 hr 4 min 25 sec) 
Heartbeat CPU  2 instructions:   43000000 cycles:   17256985 heartbeat IPC: 2.49219 cumulative IPC: 2.49174 (Simulation time: 0 hr 4 min 27 sec) 
Heartbeat CPU  0 instructions:   38000003 cycles:   17346652 heartbeat IPC: 2.00191 cumulative IPC: 2.19062 (Simulation time: 0 hr 4 min 29 sec) 
Heartbeat CPU  3 instructions:   45000003 cycles:   17420916 heartbeat IPC: 2.57434 cumulative IPC: 2.58310 (Simulation time: 0 hr 4 min 30 sec) 
Heartbeat CPU  1 instructions:   41000002 cycles:   17529834 heartbeat IPC: 2.33227 cumulative IPC: 2.33887 (Simulation time: 0 hr 4 min 31 sec) 
Heartbeat CPU  2 instructions:   44000000 cycles:   17658950 heartbeat IPC: 2.48778 cumulative IPC: 2.49165 (Simulation time: 0 hr 4 min 33 sec) 
Heartbeat CPU  0 instructions:   39000003 cycles:   17775008 heartbeat IPC: 2.33451 cumulative IPC: 2.19409 (Simulation time: 0 hr 4 min 35 sec) 
Heartbeat CPU  3 instructions:   46000003 cycles:   17808680 heartbeat IPC: 2.57889 cumulative IPC: 2.58301 (Simulation time: 0 hr 4 min 36 sec) 
Heartbeat CPU  1 instructions:   42000001 cycles:   17948966 heartbeat IPC: 2.38588 cumulative IPC: 2.33997 (Simulation time: 0 hr 4 min 38 sec) 
Heartbeat CPU  2 instructions:   45000002 cycles:   18060612 heartbeat IPC: 2.48966 cumulative IPC: 2.49161 (Simulation time: 0 hr 4 min 40 sec) 
Heartbeat CPU  3 instructions:   47000000 cycles:   18196638 heartbeat IPC: 2.57759 cumulative IPC: 2.58289 (Simulation time: 0 hr 4 min 42 sec) 
Heartbeat CPU  0 instructions:   40000000 cycles:   18213253 heartbeat IPC: 2.28182 cumulative IPC: 2.19620 (Simulation time: 0 hr 4 min 43 sec) 
Heartbeat CPU  1 instructions:   43000000 cycles:   18363476 heartbeat IPC: 2.41248 cumulative IPC: 2.34160 (Simulation time: 0 hr 4 min 45 sec) 
Heartbeat CPU  2 instructions:   46000003 cycles:   18463162 heartbeat IPC: 2.48417 cumulative IPC: 2.49145 (Simulation time: 0 hr 4 min 47 sec) 
Heartbeat CPU  3 instructions:   48000000 cycles:   18585090 heartbeat IPC: 2.57432 cumulative IPC: 2.58272 (Simulation time: 0 hr 4 min 48 sec) 
Heartbeat CPU  0 instructions:   41000000 cycles:   18645181 heartbeat IPC: 2.31520 cumulative IPC: 2.19896 (Simulation time: 0 hr 4 min 49 sec) 
Heartbeat CPU  1 instructions:   44000000 cycles:   18777459 heartbeat IPC: 2.41556 cumulative IPC: 2.34324 (Simulation time: 0 hr 4 min 52 sec) 
Heartbeat CPU  2 instructions:   47000000 cycles:   18866049 heartbeat IPC: 2.48208 cumulative IPC: 2.49125 (Simulation time: 0 hr 4 min 53 sec) 
Heartbeat CPU  3 instructions:   49000000 cycles:   18972194 heartbeat IPC: 2.58329 cumulative IPC: 2.58273 (Simulation time: 0 hr 4 min 55 sec) 
Heartbeat CPU  1 instructions:   45000001 cycles:   19179664 heartbeat IPC: 2.48630 cumulative IPC: 2.34624 (Simulation time: 0 hr 4 min 58 sec) 
Heartbeat CPU  0 instructions:   42000001 cycles:   19227694 heartbeat IPC: 1.71670 cumulative IPC: 2.18435 (Simulation time: 0 hr 4 min 58 sec) 
Heartbeat CPU  2 instructions:   48000000 cycles:   19268693 heartbeat IPC: 2.48358 cumulative IPC: 2.49109 (Simulation time: 0 hr 4 min 59 sec) 
Heartbeat CPU  3 instructions:   50000001 cycles:   19358597 heartbeat IPC: 2.58797 cumulative IPC: 2.58283 (Simulation time: 0 hr 5 min 0 sec) 
Heartbeat CPU  1 instructions:   46000000 cycles:   19646085 heartbeat IPC: 2.14398 cumulative IPC: 2.34143 (Simulation time: 0 hr 5 min 5 sec) 
Heartbeat CPU  2 instructions:   49000001 cycles:   19671935 heartbeat IPC: 2.47990 cumulative IPC: 2.49086 (Simulation time: 0 hr 5 min 5 sec) 
Heartbeat CPU  0 instructions:   43000003 cycles:   19684914 heartbeat IPC: 2.18714 cumulative IPC: 2.18441 (Simulation time: 0 hr 5 min 5 sec) 
Heartbeat CPU  3 instructions:   51000003 cycles:   19746125 heartbeat IPC: 2.58046 cumulative IPC: 0.05064 (Simulation time: 0 hr 5 min 6 sec) 
Heartbeat CPU  1 instructions:   47000000 cycles:   20054308 heartbeat IPC: 2.44964 cumulative IPC: 2.34364 (Simulation time: 0 hr 5 min 11 sec) 
Heartbeat CPU  2 instructions:   50000003 cycles:   20072895 heartbeat IPC: 2.49402 cumulative IPC: 2.49092 (Simulation time: 0 hr 5 min 12 sec) 
Heartbeat CPU  0 instructions:   44000000 cycles:   20123642 heartbeat IPC: 2.27931 cumulative IPC: 2.18648 (Simulation time: 0 hr 5 min 12 sec) 
Heartbeat CPU  3 instructions:   52000000 cycles:   20131706 heartbeat IPC: 2.59348 cumulative IPC: 0.09935 (Simulation time: 0 hr 5 min 13 sec) 
Heartbeat CPU  1 instructions:   48000000 cycles:   20449557 heartbeat IPC: 2.53005 cumulative IPC: 2.34724 (Simulation time: 0 hr 5 min 18 sec) 
Heartbeat CPU  2 instructions:   51000002 cycles:   20475800 heartbeat IPC: 2.48197 cumulative IPC: 0.04884 (Simulation time: 0 hr 5 min 18 sec) 
Heartbeat CPU  3 instructions:   53000003 cycles:   20519314 heartbeat IPC: 2.57993 cumulative IPC: 0.14620 (Simulation time: 0 hr 5 min 19 sec) 
Heartbeat CPU  0 instructions:   45000000 cycles:   20552095 heartbeat IPC: 2.33398 cumulative IPC: 2.18956 (Simulation time: 0 hr 5 min 19 sec) 
Heartbeat CPU  1 instructions:   49000002 cycles:   20846139 heartbeat IPC: 2.52155 cumulative IPC: 2.35056 (Simulation time: 0 hr 5 min 24 sec) 
Heartbeat CPU  2 instructions:   52000000 cycles:   20893641 heartbeat IPC: 2.39325 cumulative IPC: 0.09572 (Simulation time: 0 hr 5 min 25 sec) 
Heartbeat CPU  3 instructions:   54000000 cycles:   20906937 heartbeat IPC: 2.57982 cumulative IPC: 0.19132 (Simulation time: 0 hr 5 min 25 sec) 
Heartbeat CPU  0 instructions:   46000001 cycles:   21015546 heartbeat IPC: 2.15773 cumulative IPC: 2.18886 (Simulation time: 0 hr 5 min 26 sec) 
Heartbeat CPU  1 instructions:   50000000 cycles:   21240682 heartbeat IPC: 2.53457 cumulative IPC: 2.35397 (Simulation time: 0 hr 5 min 30 sec) 
Heartbeat CPU  3 instructions:   55000001 cycles:   21295281 heartbeat IPC: 2.57504 cumulative IPC: 0.23479 (Simulation time: 0 hr 5 min 31 sec) 
Heartbeat CPU  2 instructions:   53000001 cycles:   21295706 heartbeat IPC: 2.48716 cumulative IPC: 0.14087 (Simulation time: 0 hr 5 min 31 sec) 
Heartbeat CPU  0 instructions:   47000001 cycles:   21474870 heartbeat IPC: 2.17711 cumulative IPC: 2.18860 (Simulation time: 0 hr 5 min 33 sec) 
Heartbeat CPU  3 instructions:   56000000 cycles:   21683592 heartbeat IPC: 2.57525 cumulative IPC: 0.27671 (Simulation time: 0 hr 5 min 36 sec) 
Heartbeat CPU  2 instructions:   54000001 cycles:   21689923 heartbeat IPC: 2.53667 cumulative IPC: 0.18442 (Simulation time: 0 hr 5 min 36 sec) 
Heartbeat CPU  1 instructions:   51000003 cycles:   21799794 heartbeat IPC: 1.78856 cumulative IPC: 0.04587 (Simulation time: 0 hr 5 min 38 sec) 
Heartbeat CPU  0 instructions:   48000000 cycles:   21909905 heartbeat IPC: 2.29866 cumulative IPC: 2.19079 (Simulation time: 0 hr 5 min 40 sec) 
Heartbeat CPU  3 instructions:   57000003 cycles:   22071705 heartbeat IPC: 2.57658 cumulative IPC: 0.31715 (Simulation time: 0 hr 5 min 43 sec) 
Heartbeat CPU  2 instructions:   55000003 cycles:   22077405 heartbeat IPC: 2.58077 cumulative IPC: 0.22648 (Simulation time: 0 hr 5 min 43 sec) 
Heartbeat CPU  1 instructions:   52000000 cycles:   22196842 heartbeat IPC: 2.51858 cumulative IPC: 0.09010 (Simulation time: 0 hr 5 min 45 sec) 
Heartbeat CPU  0 instructions:   49000001 cycles:   22352253 heartbeat IPC: 2.26067 cumulative IPC: 2.19217 (Simulation time: 0 hr 5 min 47 sec) 
Heartbeat CPU  3 instructions:   58000002 cycles:   22459613 heartbeat IPC: 2.57793 cumulative IPC: 0.35620 (Simulation time: 0 hr 5 min 49 sec) 
Heartbeat CPU  2 instructions:   56000000 cycles:   22467212 heartbeat IPC: 2.56536 cumulative IPC: 0.26706 (Simulation time: 0 hr 5 min 49 sec) 
Heartbeat CPU  1 instructions:   53000001 cycles:   22593344 heartbeat IPC: 2.52206 cumulative IPC: 0.13278 (Simulation time: 0 hr 5 min 51 sec) 
Heartbeat CPU  0 instructions:   50000001 cycles:   22817116 heartbeat IPC: 2.15117 cumulative IPC: 2.19134 (Simulation time: 0 hr 5 min 55 sec) 

Warmup complete CPU  0 instructions:   50000001 cycles:   22817116 (Simulation time: 0 hr 5 min 55 sec) 
Warmup complete CPU  1 instructions:   53533247 cycles:   22817115 (Simulation time: 0 hr 5 min 55 sec) 
Warmup complete CPU  2 instructions:   56900376 cycles:   22817115 (Simulation time: 0 hr 5 min 55 sec) 
Warmup complete CPU  3 instructions:   58920815 cycles:   22817115 (Simulation time: 0 hr 5 min 55 sec) 

Heartbeat CPU  3 instructions:   59000003 cycles:   23321957 heartbeat IPC: 1.15963 cumulative IPC: 0.15686 (Simulation time: 0 hr 5 min 55 sec) 
Heartbeat CPU  2 instructions:   57000000 cycles:   23467598 heartbeat IPC: 0.99961 cumulative IPC: 0.15315 (Simulation time: 0 hr 5 min 56 sec) 
Heartbeat CPU  1 instructions:   54000001 cycles:   24905144 heartbeat IPC: 0.43256 cumulative IPC: 0.22354 (Simulation time: 0 hr 5 min 58 sec) 
Heartbeat CPU  3 instructions:   60000000 cycles:   29638495 heartbeat IPC: 0.15831 cumulative IPC: 0.15821 (Simulation time: 0 hr 6 min 6 sec) 
Heartbeat CPU  1 instructions:   55000001 cycles:   29674422 heartbeat IPC: 0.20968 cumulative IPC: 0.21390 (Simulation time: 0 hr 6 min 6 sec) 
Heartbeat CPU  2 instructions:   58000001 cycles:   29997576 heartbeat IPC: 0.15314 cumulative IPC: 0.15314 (Simulation time: 0 hr 6 min 6 sec) 
Heartbeat CPU  0 instructions:   51000000 cycles:   31243033 heartbeat IPC: 0.11868 cumulative IPC: 0.11868 (Simulation time: 0 hr 6 min 8 sec) 
Heartbeat CPU  3 instructions:   61000001 cycles:   35942780 heartbeat IPC: 0.15862 cumulative IPC: 0.15841 (Simulation time: 0 hr 6 min 15 sec) 
Heartbeat CPU  2 instructions:   59000001 cycles:   36511110 heartbeat IPC: 0.15353 cumulative IPC: 0.15332 (Simulation time: 0 hr 6 min 15 sec) 
Heartbeat CPU  1 instructions:   56000000 cycles:   37025413 heartbeat IPC: 0.13604 cumulative IPC: 0.17361 (Simulation time: 0 hr 6 min 16 sec) 
Heartbeat CPU  0 instructions:   52000000 cycles:   39681968 heartbeat IPC: 0.11850 cumulative IPC: 0.11859 (Simulation time: 0 hr 6 min 20 sec) 
Heartbeat CPU  3 instructions:   62000000 cycles:   42318414 heartbeat IPC: 0.15685 cumulative IPC: 0.15790 (Simulation time: 0 hr 6 min 24 sec) 
Heartbeat CPU  2 instructions:   60000000 cycles:   43024152 heartbeat IPC: 0.15354 cumulative IPC: 0.15339 (Simulation time: 0 hr 6 min 25 sec) 
Heartbeat CPU  1 instructions:   57000000 cycles:   45279329 heartbeat IPC: 0.12115 cumulative IPC: 0.15434 (Simulation time: 0 hr 6 min 28 sec) 
Heartbeat CPU  0 instructions:   53000003 cycles:   48047761 heartbeat IPC: 0.11953 cumulative IPC: 0.11890 (Simulation time: 0 hr 6 min 32 sec) 
Heartbeat CPU  3 instructions:   63000003 cycles:   48693563 heartbeat IPC: 0.15686 cumulative IPC: 0.15764 (Simulation time: 0 hr 6 min 33 sec) 
Heartbeat CPU  2 instructions:   61000000 cycles:   49546204 heartbeat IPC: 0.15333 cumulative IPC: 0.15338 (Simulation time: 0 hr 6 min 34 sec) 
Heartbeat CPU  1 instructions:   58000003 cycles:   53535465 heartbeat IPC: 0.12112 cumulative IPC: 0.14541 (Simulation time: 0 hr 6 min 40 sec) 
Heartbeat CPU  3 instructions:   64000000 cycles:   55073551 heartbeat IPC: 0.15674 cumulative IPC: 0.15746 (Simulation time: 0 hr 6 min 42 sec) 
Heartbeat CPU  2 instructions:   62000000 cycles:   56072943 heartbeat IPC: 0.15322 cumulative IPC: 0.15335 (Simulation time: 0 hr 6 min 43 sec) 
Heartbeat CPU  0 instructions:   54000002 cycles:   56471759 heartbeat IPC: 0.11871 cumulative IPC: 0.11885 (Simulation time: 0 hr 6 min 44 sec) 
Heartbeat CPU  3 instructions:   65000001 cycles:   61460478 heartbeat IPC: 0.15657 cumulative IPC: 0.15732 (Simulation time: 0 hr 6 min 51 sec) 
Heartbeat CPU  1 instructions:   59000003 cycles:   61861991 heartbeat IPC: 0.12010 cumulative IPC: 0.14001 (Simulation time: 0 hr 6 min 51 sec) 
Heartbeat CPU  2 instructions:   63000002 cycles:   62596659 heartbeat IPC: 0.15329 cumulative IPC: 0.15334 (Simulation time: 0 hr 6 min 52 sec) 
Heartbeat CPU  0 instructions:   55000002 cycles:   64942303 heartbeat IPC: 0.11806 cumulative IPC: 0.11869 (Simulation time: 0 hr 6 min 56 sec) 
Heartbeat CPU  3 instructions:   66000002 cycles:   67888091 heartbeat IPC: 0.15558 cumulative IPC: 0.15707 (Simulation time: 0 hr 7 min 0 sec) 
Heartbeat CPU  2 instructions:   64000000 cycles:   69135536 heartbeat IPC: 0.15293 cumulative IPC: 0.15328 (Simulation time: 0 hr 7 min 1 sec) 
Heartbeat CPU  1 instructions:   60000000 cycles:   70235921 heartbeat IPC: 0.11942 cumulative IPC: 0.13638 (Simulation time: 0 hr 7 min 3 sec) 
Heartbeat CPU  0 instructions:   56000000 cycles:   73407137 heartbeat IPC: 0.11814 cumulative IPC: 0.11860 (Simulation time: 0 hr 7 min 7 sec) 
Heartbeat CPU  3 instructions:   67000002 cycles:   74333504 heartbeat IPC: 0.15515 cumulative IPC: 0.15683 (Simulation time: 0 hr 7 min 9 sec) 
Heartbeat CPU  2 instructions:   65000000 cycles:   75652004 heartbeat IPC: 0.15346 cumulative IPC: 0.15330 (Simulation time: 0 hr 7 min 11 sec) 
Heartbeat CPU  1 instructions:   61000003 cycles:   78559934 heartbeat IPC: 0.12013 cumulative IPC: 0.13395 (Simulation time: 0 hr 7 min 15 sec) 
Heartbeat CPU  3 instructions:   68000000 cycles:   80745799 heartbeat IPC: 0.15595 cumulative IPC: 0.15673 (Simulation time: 0 hr 7 min 18 sec) 
Heartbeat CPU  0 instructions:   57000002 cycles:   82129996 heartbeat IPC: 0.11464 cumulative IPC: 0.11802 (Simulation time: 0 hr 7 min 20 sec) 
Heartbeat CPU  2 instructions:   66000001 cycles:   82202897 heartbeat IPC: 0.15265 cumulative IPC: 0.15323 (Simulation time: 0 hr 7 min 20 sec) 
Heartbeat CPU  1 instructions:   62000003 cycles:   86872456 heartbeat IPC: 0.12030 cumulative IPC: 0.13218 (Simulation time: 0 hr 7 min 26 sec) 
Heartbeat CPU  3 instructions:   69000000 cycles:   87137667 heartbeat IPC: 0.15645 cumulative IPC: 0.15670 (Simulation time: 0 hr 7 min 27 sec) 
Heartbeat CPU  2 instructions:   67000000 cycles:   88722514 heartbeat IPC: 0.15338 cumulative IPC: 0.15324 (Simulation time: 0 hr 7 min 29 sec) 
Heartbeat CPU  0 instructions:   58000000 cycles:   90630899 heartbeat IPC: 0.11763 cumulative IPC: 0.11797 (Simulation time: 0 hr 7 min 32 sec) 
Heartbeat CPU  3 instructions:   70000002 cycles:   93539059 heartbeat IPC: 0.15622 cumulative IPC: 0.15666 (Simulation time: 0 hr 7 min 36 sec) 
Heartbeat CPU  1 instructions:   63000003 cycles:   95223960 heartbeat IPC: 0.11974 cumulative IPC: 0.13074 (Simulation time: 0 hr 7 min 38 sec) 
Heartbeat CPU  2 instructions:   68000000 cycles:   95249554 heartbeat IPC: 0.15321 cumulative IPC: 0.15324 (Simulation time: 0 hr 7 min 38 sec) 
Heartbeat CPU  0 instructions:   59000003 cycles:   99214475 heartbeat IPC: 0.11650 cumulative IPC: 0.11781 (Simulation time: 0 hr 7 min 44 sec) 
Heartbeat CPU  3 instructions:   71000002 cycles:   99937300 heartbeat IPC: 0.15629 cumulative IPC: 0.15663 (Simulation time: 0 hr 7 min 45 sec) 
Heartbeat CPU  2 instructions:   69000002 cycles:  101801142 heartbeat IPC: 0.15264 cumulative IPC: 0.15319 (Simulation time: 0 hr 7 min 47 sec) 
Heartbeat CPU  1 instructions:   64000000 cycles:  103605034 heartbeat IPC: 0.11932 cumulative IPC: 0.12956 (Simulation time: 0 hr 7 min 50 sec) 
Heartbeat CPU  3 instructions:   72000000 cycles:  106356350 heartbeat IPC: 0.15579 cumulative IPC: 0.15656 (Simulation time: 0 hr 7 min 54 sec) 
Heartbeat CPU  0 instructions:   60000000 cycles:  107033104 heartbeat IPC: 0.12790 cumulative IPC: 0.11874 (Simulation time: 0 hr 7 min 55 sec) 
Heartbeat CPU  2 instructions:   70000003 cycles:  108327223 heartbeat IPC: 0.15323 cumulative IPC: 0.15319 (Simulation time: 0 hr 7 min 57 sec) 
Heartbeat CPU  0 instructions:   61000003 cycles:  111525844 heartbeat IPC: 0.22258 cumulative IPC: 0.12400 (Simulation time: 0 hr 8 min 2 sec) 
Heartbeat CPU  1 instructions:   65000000 cycles:  112144219 heartbeat IPC: 0.11711 cumulative IPC: 0.12837 (Simulation time: 0 hr 8 min 3 sec) 
Heartbeat CPU  3 instructions:   73000001 cycles:  112771299 heartbeat IPC: 0.15589 cumulative IPC: 0.15652 (Simulation time: 0 hr 8 min 4 sec) 
Heartbeat CPU  2 instructions:   71000000 cycles:  114918675 heartbeat IPC: 0.15171 cumulative IPC: 0.15309 (Simulation time: 0 hr 8 min 8 sec) 
Heartbeat CPU  0 instructions:   62000000 cycles:  117313826 heartbeat IPC: 0.17277 cumulative IPC: 0.12699 (Simulation time: 0 hr 8 min 11 sec) 
Heartbeat CPU  3 instructions:   74000000 cycles:  119177685 heartbeat IPC: 0.15609 cumulative IPC: 0.15649 (Simulation time: 0 hr 8 min 14 sec) 
Heartbeat CPU  1 instructions:   66000002 cycles:  120521849 heartbeat IPC: 0.11937 cumulative IPC: 0.12760 (Simulation time: 0 hr 8 min 16 sec) 
Heartbeat CPU  2 instructions:   72000000 cycles:  121433769 heartbeat IPC: 0.15349 cumulative IPC: 0.15311 (Simulation time: 0 hr 8 min 17 sec) 
Heartbeat CPU  3 instructions:   75000000 cycles:  125595272 heartbeat IPC: 0.15582 cumulative IPC: 0.15645 (Simulation time: 0 hr 8 min 23 sec) 
Heartbeat CPU  0 instructions:   63000001 cycles:  125710069 heartbeat IPC: 0.11910 cumulative IPC: 0.12634 (Simulation time: 0 hr 8 min 23 sec) 
Heartbeat CPU  2 instructions:   73000003 cycles:  127972194 heartbeat IPC: 0.15294 cumulative IPC: 0.15310 (Simulation time: 0 hr 8 min 26 sec) 
Heartbeat CPU  1 instructions:   67000002 cycles:  129033970 heartbeat IPC: 0.11748 cumulative IPC: 0.12679 (Simulation time: 0 hr 8 min 28 sec) 
Heartbeat CPU  3 instructions:   76000000 cycles:  132028639 heartbeat IPC: 0.15544 cumulative IPC: 0.15639 (Simulation time: 0 hr 8 min 32 sec) 
Heartbeat CPU  0 instructions:   64000000 cycles:  134036879 heartbeat IPC: 0.12009 cumulative IPC: 0.12588 (Simulation time: 0 hr 8 min 35 sec) 
Heartbeat CPU  2 instructions:   74000000 cycles:  134482554 heartbeat IPC: 0.15360 cumulative IPC: 0.15313 (Simulation time: 0 hr 8 min 35 sec) 
Heartbeat CPU  1 instructions:   68000000 cycles:  137563489 heartbeat IPC: 0.11724 cumulative IPC: 0.12608 (Simulation time: 0 hr 8 min 40 sec) 
Heartbeat CPU  3 instructions:   77000001 cycles:  138449828 heartbeat IPC: 0.15573 cumulative IPC: 0.15635 (Simulation time: 0 hr 8 min 41 sec) 
Heartbeat CPU  2 instructions:   75000003 cycles:  141075381 heartbeat IPC: 0.15168 cumulative IPC: 0.15305 (Simulation time: 0 hr 8 min 45 sec) 
Heartbeat CPU  0 instructions:   65000003 cycles:  142393061 heartbeat IPC: 0.11967 cumulative IPC: 0.12544 (Simulation time: 0 hr 8 min 47 sec) 
Heartbeat CPU  1 instructions:   69000001 cycles:  142675068 heartbeat IPC: 0.19563 cumulative IPC: 0.12904 (Simulation time: 0 hr 8 min 48 sec) 
Heartbeat CPU  3 instructions:   78000002 cycles:  144852334 heartbeat IPC: 0.15619 cumulative IPC: 0.15634 (Simulation time: 0 hr 8 min 51 sec) 
Heartbeat CPU  2 instructions:   76000000 cycles:  147684493 heartbeat IPC: 0.15131 cumulative IPC: 0.15296 (Simulation time: 0 hr 8 min 55 sec) 
Heartbeat CPU  1 instructions:   70000002 cycles:  147765997 heartbeat IPC: 0.19643 cumulative IPC: 0.13179 (Simulation time: 0 hr 8 min 56 sec) 
Heartbeat CPU  0 instructions:   66000000 cycles:  150820432 heartbeat IPC: 0.11866 cumulative IPC: 0.12500 (Simulation time: 0 hr 9 min 0 sec) 
Heartbeat CPU  3 instructions:   79000000 cycles:  151227966 heartbeat IPC: 0.15685 cumulative IPC: 0.15637 (Simulation time: 0 hr 9 min 1 sec) 
Heartbeat CPU  2 instructions:   77000001 cycles:  154262092 heartbeat IPC: 0.15203 cumulative IPC: 0.15291 (Simulation time: 0 hr 9 min 5 sec) 
Heartbeat CPU  1 instructions:   71000001 cycles:  155542482 heartbeat IPC: 0.12859 cumulative IPC: 0.13160 (Simulation time: 0 hr 9 min 7 sec) 
Heartbeat CPU  3 instructions:   80000000 cycles:  157625765 heartbeat IPC: 0.15630 cumulative IPC: 0.15636 (Simulation time: 0 hr 9 min 10 sec) 
Heartbeat CPU  0 instructions:   67000002 cycles:  159169340 heartbeat IPC: 0.11978 cumulative IPC: 0.12468 (Simulation time: 0 hr 9 min 12 sec) 
Heartbeat CPU  2 instructions:   78000001 cycles:  160880553 heartbeat IPC: 0.15109 cumulative IPC: 0.15283 (Simulation time: 0 hr 9 min 14 sec) 
Heartbeat CPU  1 instructions:   72000000 cycles:  163809784 heartbeat IPC: 0.12096 cumulative IPC: 0.13098 (Simulation time: 0 hr 9 min 18 sec) 
Heartbeat CPU  3 instructions:   81000001 cycles:  164046065 heartbeat IPC: 0.15576 cumulative IPC: 0.15634 (Simulation time: 0 hr 9 min 19 sec) 
Heartbeat CPU  2 instructions:   79000001 cycles:  167466126 heartbeat IPC: 0.15185 cumulative IPC: 0.15278 (Simulation time: 0 hr 9 min 23 sec) 
Heartbeat CPU  0 instructions:   68000000 cycles:  167577294 heartbeat IPC: 0.11893 cumulative IPC: 0.12434 (Simulation time: 0 hr 9 min 24 sec) 
Heartbeat CPU  3 instructions:   82000000 cycles:  170463457 heartbeat IPC: 0.15583 cumulative IPC: 0.15631 (Simulation time: 0 hr 9 min 28 sec) 
Heartbeat CPU  1 instructions:   73000000 cycles:  172045965 heartbeat IPC: 0.12142 cumulative IPC: 0.13045 (Simulation time: 0 hr 9 min 30 sec) 
Heartbeat CPU  2 instructions:   80000000 cycles:  173999884 heartbeat IPC: 0.15305 cumulative IPC: 0.15279 (Simulation time: 0 hr 9 min 33 sec) 
Heartbeat CPU  0 instructions:   69000002 cycles:  176052271 heartbeat IPC: 0.11799 cumulative IPC: 0.12399 (Simulation time: 0 hr 9 min 36 sec) 
Heartbeat CPU  3 instructions:   83000001 cycles:  176867187 heartbeat IPC: 0.15616 cumulative IPC: 0.15631 (Simulation time: 0 hr 9 min 37 sec) 
Heartbeat CPU  1 instructions:   74000000 cycles:  180316754 heartbeat IPC: 0.12091 cumulative IPC: 0.12995 (Simulation time: 0 hr 9 min 42 sec) 
Heartbeat CPU  2 instructions:   81000001 cycles:  180551210 heartbeat IPC: 0.15264 cumulative IPC: 0.15279 (Simulation time: 0 hr 9 min 42 sec) 
Heartbeat CPU  3 instructions:   84000000 cycles:  183259949 heartbeat IPC: 0.15643 cumulative IPC: 0.15631 (Simulation time: 0 hr 9 min 46 sec) 
Heartbeat CPU  0 instructions:   70000003 cycles:  184547306 heartbeat IPC: 0.11772 cumulative IPC: 0.12366 (Simulation time: 0 hr 9 min 47 sec) 
Heartbeat CPU  2 instructions:   82000000 cycles:  187066276 heartbeat IPC: 0.15349 cumulative IPC: 0.15281 (Simulation time: 0 hr 9 min 51 sec) 
Heartbeat CPU  1 instructions:   75000000 cycles:  188529469 heartbeat IPC: 0.12176 cumulative IPC: 0.12954 (Simulation time: 0 hr 9 min 53 sec) 
Heartbeat CPU  3 instructions:   85000000 cycles:  189686073 heartbeat IPC: 0.15561 cumulative IPC: 0.15629 (Simulation time: 0 hr 9 min 55 sec) 
Heartbeat CPU  0 instructions:   71000002 cycles:  193046875 heartbeat IPC: 0.11765 cumulative IPC: 0.12336 (Simulation time: 0 hr 9 min 59 sec) 
Heartbeat CPU  2 instructions:   83000001 cycles:  193621815 heartbeat IPC: 0.15254 cumulative IPC: 0.15280 (Simulation time: 0 hr 10 min 0 sec) 
Heartbeat CPU  3 instructions:   86000000 cycles:  196116586 heartbeat IPC: 0.15551 cumulative IPC: 0.15626 (Simulation time: 0 hr 10 min 4 sec) 
Heartbeat CPU  1 instructions:   76000000 cycles:  196974915 heartbeat IPC: 0.11841 cumulative IPC: 0.12900 (Simulation time: 0 hr 10 min 5 sec) 
Heartbeat CPU  2 instructions:   84000000 cycles:  200162944 heartbeat IPC: 0.15288 cumulative IPC: 0.15281 (Simulation time: 0 hr 10 min 9 sec) 
Heartbeat CPU  0 instructions:   72000000 cycles:  201760147 heartbeat IPC: 0.11477 cumulative IPC: 0.12294 (Simulation time: 0 hr 10 min 12 sec) 
Heartbeat CPU  3 instructions:   87000000 cycles:  202562821 heartbeat IPC: 0.15513 cumulative IPC: 0.15622 (Simulation time: 0 hr 10 min 13 sec) 
Heartbeat CPU  1 instructions:   77000003 cycles:  205303480 heartbeat IPC: 0.12007 cumulative IPC: 0.12859 (Simulation time: 0 hr 10 min 17 sec) 
Heartbeat CPU  2 instructions:   85000003 cycles:  206702749 heartbeat IPC: 0.15291 cumulative IPC: 0.15281 (Simulation time: 0 hr 10 min 19 sec) 
Heartbeat CPU  3 instructions:   88000000 cycles:  209036428 heartbeat IPC: 0.15447 cumulative IPC: 0.15616 (Simulation time: 0 hr 10 min 22 sec) 
Heartbeat CPU  0 instructions:   73000003 cycles:  210301342 heartbeat IPC: 0.11708 cumulative IPC: 0.12268 (Simulation time: 0 hr 10 min 24 sec) 
Heartbeat CPU  2 instructions:   86000000 cycles:  213242046 heartbeat IPC: 0.15292 cumulative IPC: 0.15281 (Simulation time: 0 hr 10 min 28 sec) 
Heartbeat CPU  1 instructions:   78000001 cycles:  213664851 heartbeat IPC: 0.11960 cumulative IPC: 0.12820 (Simulation time: 0 hr 10 min 28 sec) 
Heartbeat CPU  3 instructions:   89000000 cycles:  215544141 heartbeat IPC: 0.15366 cumulative IPC: 0.15607 (Simulation time: 0 hr 10 min 31 sec) 
Heartbeat CPU  0 instructions:   74000002 cycles:  218878900 heartbeat IPC: 0.11658 cumulative IPC: 0.12241 (Simulation time: 0 hr 10 min 36 sec) 
Heartbeat CPU  2 instructions:   87000001 cycles:  219748541 heartbeat IPC: 0.15369 cumulative IPC: 0.15284 (Simulation time: 0 hr 10 min 37 sec) 
Heartbeat CPU  1 instructions:   79000000 cycles:  222043559 heartbeat IPC: 0.11935 cumulative IPC: 0.12783 (Simulation time: 0 hr 10 min 40 sec) 
Heartbeat CPU  3 instructions:   90000000 cycles:  222044702 heartbeat IPC: 0.15383 cumulative IPC: 0.15600 (Simulation time: 0 hr 10 min 40 sec) 
Heartbeat CPU  0 instructions:   75000001 cycles:  225330846 heartbeat IPC: 0.15499 cumulative IPC: 0.12345 (Simulation time: 0 hr 10 min 45 sec) 
Heartbeat CPU  2 instructions:   88000000 cycles:  226270479 heartbeat IPC: 0.15333 cumulative IPC: 0.15286 (Simulation time: 0 hr 10 min 47 sec) 
Heartbeat CPU  3 instructions:   91000002 cycles:  228552868 heartbeat IPC: 0.15365 cumulative IPC: 0.15592 (Simulation time: 0 hr 10 min 51 sec) 
Heartbeat CPU  0 instructions:   76000000 cycles:  229861745 heartbeat IPC: 0.22071 cumulative IPC: 0.12558 (Simulation time: 0 hr 10 min 53 sec) 
Heartbeat CPU  1 instructions:   80000000 cycles:  230622425 heartbeat IPC: 0.11657 cumulative IPC: 0.12736 (Simulation time: 0 hr 10 min 54 sec) 
Heartbeat CPU  2 instructions:   89000000 cycles:  232779081 heartbeat IPC: 0.15364 cumulative IPC: 0.15288 (Simulation time: 0 hr 10 min 57 sec) 
Heartbeat CPU  3 instructions:   92000000 cycles:  235029522 heartbeat IPC: 0.15440 cumulative IPC: 0.15588 (Simulation time: 0 hr 11 min 1 sec) 
Heartbeat CPU  0 instructions:   77000000 cycles:  236751392 heartbeat IPC: 0.14515 cumulative IPC: 0.12621 (Simulation time: 0 hr 11 min 3 sec) 
Heartbeat CPU  1 instructions:   81000001 cycles:  239017024 heartbeat IPC: 0.11912 cumulative IPC: 0.12704 (Simulation time: 0 hr 11 min 7 sec) 
Heartbeat CPU  2 instructions:   90000003 cycles:  239278497 heartbeat IPC: 0.15386 cumulative IPC: 0.15291 (Simulation time: 0 hr 11 min 7 sec) 
Heartbeat CPU  3 instructions:   93000002 cycles:  241449201 heartbeat IPC: 0.15577 cumulative IPC: 0.15587 (Simulation time: 0 hr 11 min 10 sec) 
Heartbeat CPU  0 instructions:   78000002 cycles:  245077413 heartbeat IPC: 0.12011 cumulative IPC: 0.12598 (Simulation time: 0 hr 11 min 15 sec) 
Heartbeat CPU  2 instructions:   91000000 cycles:  245834184 heartbeat IPC: 0.15254 cumulative IPC: 0.15290 (Simulation time: 0 hr 11 min 16 sec) 
Heartbeat CPU  1 instructions:   82000002 cycles:  247506279 heartbeat IPC: 0.11780 cumulative IPC: 0.12669 (Simulation time: 0 hr 11 min 19 sec) 
Heartbeat CPU  3 instructions:   94000002 cycles:  247852478 heartbeat IPC: 0.15617 cumulative IPC: 0.15588 (Simulation time: 0 hr 11 min 19 sec) 
Heartbeat CPU  2 instructions:   92000000 cycles:  252341572 heartbeat IPC: 0.15367 cumulative IPC: 0.15292 (Simulation time: 0 hr 11 min 26 sec) 
Heartbeat CPU  0 instructions:   79000003 cycles:  253433463 heartbeat IPC: 0.11967 cumulative IPC: 0.12575 (Simulation time: 0 hr 11 min 27 sec) 
Heartbeat CPU  3 instructions:   95000000 cycles:  254237943 heartbeat IPC: 0.15661 cumulative IPC: 0.15590 (Simulation time: 0 hr 11 min 28 sec) 
Heartbeat CPU  1 instructions:   83000003 cycles:  255828571 heartbeat IPC: 0.12016 cumulative IPC: 0.12646 (Simulation time: 0 hr 11 min 31 sec) 
Heartbeat CPU  2 instructions:   93000000 cycles:  258871441 heartbeat IPC: 0.15314 cumulative IPC: 0.15293 (Simulation time: 0 hr 11 min 36 sec) 
Heartbeat CPU  1 instructions:   84000000 cycles:  260480783 heartbeat IPC: 0.21495 cumulative IPC: 0.12819 (Simulation time: 0 hr 11 min 39 sec) 
Heartbeat CPU  3 instructions:   96000000 cycles:  260619132 heartbeat IPC: 0.15671 cumulative IPC: 0.15592 (Simulation time: 0 hr 11 min 39 sec) 
Heartbeat CPU  0 instructions:   80000000 cycles:  261866455 heartbeat IPC: 0.11858 cumulative IPC: 0.12550 (Simulation time: 0 hr 11 min 41 sec) 
Heartbeat CPU  2 instructions:   94000001 cycles:  265389466 heartbeat IPC: 0.15342 cumulative IPC: 0.15294 (Simulation time: 0 hr 11 min 46 sec) 
Heartbeat CPU  1 instructions:   85000001 cycles:  265785913 heartbeat IPC: 0.18850 cumulative IPC: 0.12951 (Simulation time: 0 hr 11 min 47 sec) 
Heartbeat CPU  3 instructions:   97000001 cycles:  267036253 heartbeat IPC: 0.15583 cumulative IPC: 0.15592 (Simulation time: 0 hr 11 min 49 sec) 
Heartbeat CPU  0 instructions:   81000002 cycles:  270269166 heartbeat IPC: 0.11901 cumulative IPC: 0.12528 (Simulation time: 0 hr 11 min 53 sec) 
Heartbeat CPU  2 instructions:   95000000 cycles:  271990567 heartbeat IPC: 0.15149 cumulative IPC: 0.15290 (Simulation time: 0 hr 11 min 56 sec) 
Heartbeat CPU  3 instructions:   98000003 cycles:  273449892 heartbeat IPC: 0.15592 cumulative IPC: 0.15592 (Simulation time: 0 hr 11 min 58 sec) 
Heartbeat CPU  1 instructions:   86000000 cycles:  274007242 heartbeat IPC: 0.12163 cumulative IPC: 0.12925 (Simulation time: 0 hr 11 min 59 sec) 
Heartbeat CPU  0 instructions:   82000002 cycles:  278620790 heartbeat IPC: 0.11974 cumulative IPC: 0.12510 (Simulation time: 0 hr 12 min 5 sec) 
Heartbeat CPU  2 instructions:   96000000 cycles:  278620903 heartbeat IPC: 0.15082 cumulative IPC: 0.15285 (Simulation time: 0 hr 12 min 5 sec) 
Heartbeat CPU  3 instructions:   99000001 cycles:  279867911 heartbeat IPC: 0.15581 cumulative IPC: 0.15592 (Simulation time: 0 hr 12 min 7 sec) 
Heartbeat CPU  1 instructions:   87000001 cycles:  282259558 heartbeat IPC: 0.12118 cumulative IPC: 0.12899 (Simulation time: 0 hr 12 min 11 sec) 
Heartbeat CPU  2 instructions:   97000000 cycles:  285248412 heartbeat IPC: 0.15089 cumulative IPC: 0.15280 (Simulation time: 0 hr 12 min 15 sec) 
*** Reached end of trace for Core: 3 Repeating trace: /data3/CLOUD9/traces/cloud9_phase0_core3.trace.xz
Heartbeat CPU  3 instructions:  100000000 cycles:  286277525 heartbeat IPC: 0.15602 cumulative IPC: 0.15592 (Simulation time: 0 hr 12 min 16 sec) 
Heartbeat CPU  0 instructions:   83000003 cycles:  287054183 heartbeat IPC: 0.11858 cumulative IPC: 0.12489 (Simulation time: 0 hr 12 min 18 sec) 
Heartbeat CPU  1 instructions:   88000000 cycles:  290560993 heartbeat IPC: 0.12046 cumulative IPC: 0.12873 (Simulation time: 0 hr 12 min 23 sec) 
Heartbeat CPU  2 instructions:   98000003 cycles:  291874819 heartbeat IPC: 0.15091 cumulative IPC: 0.15275 (Simulation time: 0 hr 12 min 24 sec) 
Heartbeat CPU  3 instructions:  101000003 cycles:  292727429 heartbeat IPC: 0.15504 cumulative IPC: 0.15590 (Simulation time: 0 hr 12 min 26 sec) 
Heartbeat CPU  0 instructions:   84000000 cycles:  295523695 heartbeat IPC: 0.11807 cumulative IPC: 0.12468 (Simulation time: 0 hr 12 min 30 sec) 
Heartbeat CPU  2 instructions:   99000001 cycles:  298450436 heartbeat IPC: 0.15208 cumulative IPC: 0.15274 (Simulation time: 0 hr 12 min 34 sec) 
Heartbeat CPU  1 instructions:   89000000 cycles:  298902982 heartbeat IPC: 0.11988 cumulative IPC: 0.12846 (Simulation time: 0 hr 12 min 35 sec) 
Heartbeat CPU  3 instructions:  102000001 cycles:  299171554 heartbeat IPC: 0.15518 cumulative IPC: 0.15588 (Simulation time: 0 hr 12 min 35 sec) 
Heartbeat CPU  0 instructions:   85000002 cycles:  303995182 heartbeat IPC: 0.11804 cumulative IPC: 0.12448 (Simulation time: 0 hr 12 min 42 sec) 
*** Reached end of trace for Core: 2 Repeating trace: /data3/CLOUD9/traces/cloud9_phase0_core2.trace.xz
Heartbeat CPU  2 instructions:  100000000 cycles:  305046229 heartbeat IPC: 0.15161 cumulative IPC: 0.15271 (Simulation time: 0 hr 12 min 44 sec) 
Heartbeat CPU  3 instructions:  103000000 cycles:  305657198 heartbeat IPC: 0.15419 cumulative IPC: 0.15584 (Simulation time: 0 hr 12 min 45 sec) 
Heartbeat CPU  1 instructions:   90000001 cycles:  307309094 heartbeat IPC: 0.11896 cumulative IPC: 0.12818 (Simulation time: 0 hr 12 min 47 sec) 
Heartbeat CPU  2 instructions:  101000001 cycles:  312028471 heartbeat IPC: 0.14322 cumulative IPC: 0.15248 (Simulation time: 0 hr 12 min 54 sec) 
Heartbeat CPU  3 instructions:  104000000 cycles:  312214523 heartbeat IPC: 0.15250 cumulative IPC: 0.15577 (Simulation time: 0 hr 12 min 54 sec) 
Heartbeat CPU  0 instructions:   86000001 cycles:  312313423 heartbeat IPC: 0.12022 cumulative IPC: 0.12435 (Simulation time: 0 hr 12 min 54 sec) 
Heartbeat CPU  1 instructions:   91000002 cycles:  315643951 heartbeat IPC: 0.11998 cumulative IPC: 0.12795 (Simulation time: 0 hr 12 min 59 sec) 
Heartbeat CPU  3 instructions:  105000000 cycles:  318825050 heartbeat IPC: 0.15127 cumulative IPC: 0.15567 (Simulation time: 0 hr 13 min 3 sec) 
Heartbeat CPU  2 instructions:  102000002 cycles:  318975298 heartbeat IPC: 0.14395 cumulative IPC: 0.15228 (Simulation time: 0 hr 13 min 3 sec) 
Heartbeat CPU  0 instructions:   87000000 cycles:  321190474 heartbeat IPC: 0.11265 cumulative IPC: 0.12401 (Simulation time: 0 hr 13 min 6 sec) 
Heartbeat CPU  1 instructions:   92000000 cycles:  323969228 heartbeat IPC: 0.12012 cumulative IPC: 0.12773 (Simulation time: 0 hr 13 min 10 sec) 
Heartbeat CPU  3 instructions:  106000002 cycles:  325384214 heartbeat IPC: 0.15246 cumulative IPC: 0.15560 (Simulation time: 0 hr 13 min 12 sec) 
Heartbeat CPU  2 instructions:  103000003 cycles:  325668574 heartbeat IPC: 0.14940 cumulative IPC: 0.15222 (Simulation time: 0 hr 13 min 13 sec) 
Heartbeat CPU  0 instructions:   88000000 cycles:  329785384 heartbeat IPC: 0.11635 cumulative IPC: 0.12379 (Simulation time: 0 hr 13 min 18 sec) 
Heartbeat CPU  3 instructions:  107000000 cycles:  331951963 heartbeat IPC: 0.15226 cumulative IPC: 0.15553 (Simulation time: 0 hr 13 min 21 sec) 
Heartbeat CPU  1 instructions:   93000001 cycles:  332348465 heartbeat IPC: 0.11934 cumulative IPC: 0.12750 (Simulation time: 0 hr 13 min 22 sec) 
Heartbeat CPU  2 instructions:  104000000 cycles:  332385327 heartbeat IPC: 0.14888 cumulative IPC: 0.15215 (Simulation time: 0 hr 13 min 22 sec) 
Heartbeat CPU  0 instructions:   89000001 cycles:  338394558 heartbeat IPC: 0.11616 cumulative IPC: 0.12358 (Simulation time: 0 hr 13 min 30 sec) 
Heartbeat CPU  3 instructions:  108000000 cycles:  338548284 heartbeat IPC: 0.15160 cumulative IPC: 0.15545 (Simulation time: 0 hr 13 min 31 sec) 
Heartbeat CPU  2 instructions:  105000000 cycles:  339074135 heartbeat IPC: 0.14950 cumulative IPC: 0.15209 (Simulation time: 0 hr 13 min 31 sec) 
Heartbeat CPU  1 instructions:   94000000 cycles:  340718576 heartbeat IPC: 0.11947 cumulative IPC: 0.12729 (Simulation time: 0 hr 13 min 34 sec) 
Heartbeat CPU  0 instructions:   90000000 cycles:  343742735 heartbeat IPC: 0.18698 cumulative IPC: 0.12464 (Simulation time: 0 hr 13 min 39 sec) 
Heartbeat CPU  3 instructions:  109000000 cycles:  345132772 heartbeat IPC: 0.15187 cumulative IPC: 0.15537 (Simulation time: 0 hr 13 min 41 sec) 
Heartbeat CPU  2 instructions:  106000003 cycles:  345761759 heartbeat IPC: 0.14953 cumulative IPC: 0.15204 (Simulation time: 0 hr 13 min 42 sec) 
Heartbeat CPU  0 instructions:   91000003 cycles:  348630700 heartbeat IPC: 0.20458 cumulative IPC: 0.12584 (Simulation time: 0 hr 13 min 47 sec) 
Heartbeat CPU  1 instructions:   95000001 cycles:  349278120 heartbeat IPC: 0.11683 cumulative IPC: 0.12702 (Simulation time: 0 hr 13 min 48 sec) 
Heartbeat CPU  3 instructions:  110000001 cycles:  351727576 heartbeat IPC: 0.15163 cumulative IPC: 0.15530 (Simulation time: 0 hr 13 min 51 sec) 
Heartbeat CPU  2 instructions:  107000001 cycles:  352432812 heartbeat IPC: 0.14990 cumulative IPC: 0.15199 (Simulation time: 0 hr 13 min 52 sec) 
Heartbeat CPU  0 instructions:   92000000 cycles:  356298332 heartbeat IPC: 0.13042 cumulative IPC: 0.12594 (Simulation time: 0 hr 13 min 58 sec) 
Heartbeat CPU  1 instructions:   96000000 cycles:  357703112 heartbeat IPC: 0.11869 cumulative IPC: 0.12681 (Simulation time: 0 hr 14 min 0 sec) 
Heartbeat CPU  3 instructions:  111000000 cycles:  358373713 heartbeat IPC: 0.15046 cumulative IPC: 0.15520 (Simulation time: 0 hr 14 min 1 sec) 
Heartbeat CPU  2 instructions:  108000000 cycles:  359092980 heartbeat IPC: 0.15015 cumulative IPC: 0.15196 (Simulation time: 0 hr 14 min 2 sec) 
Heartbeat CPU  0 instructions:   93000000 cycles:  364650887 heartbeat IPC: 0.11972 cumulative IPC: 0.12579 (Simulation time: 0 hr 14 min 9 sec) 
Heartbeat CPU  3 instructions:  112000000 cycles:  365021438 heartbeat IPC: 0.15043 cumulative IPC: 0.15511 (Simulation time: 0 hr 14 min 10 sec) 
Heartbeat CPU  2 instructions:  109000003 cycles:  365771862 heartbeat IPC: 0.14973 cumulative IPC: 0.15191 (Simulation time: 0 hr 14 min 11 sec) 
Heartbeat CPU  1 instructions:   97000000 cycles:  366189533 heartbeat IPC: 0.11784 cumulative IPC: 0.12659 (Simulation time: 0 hr 14 min 12 sec) 
Heartbeat CPU  3 instructions:  113000000 cycles:  371686435 heartbeat IPC: 0.15004 cumulative IPC: 0.15501 (Simulation time: 0 hr 14 min 19 sec) 
Heartbeat CPU  2 instructions:  110000001 cycles:  372472328 heartbeat IPC: 0.14924 cumulative IPC: 0.15186 (Simulation time: 0 hr 14 min 21 sec) 
Heartbeat CPU  0 instructions:   94000003 cycles:  373033214 heartbeat IPC: 0.11930 cumulative IPC: 0.12564 (Simulation time: 0 hr 14 min 22 sec) 
Heartbeat CPU  1 instructions:   98000000 cycles:  373703773 heartbeat IPC: 0.13308 cumulative IPC: 0.12673 (Simulation time: 0 hr 14 min 23 sec) 
Heartbeat CPU  1 instructions:   99000001 cycles:  378255334 heartbeat IPC: 0.21971 cumulative IPC: 0.12792 (Simulation time: 0 hr 14 min 30 sec) 
Heartbeat CPU  3 instructions:  114000003 cycles:  378360273 heartbeat IPC: 0.14984 cumulative IPC: 0.15492 (Simulation time: 0 hr 14 min 30 sec) 
Heartbeat CPU  2 instructions:  111000001 cycles:  379141967 heartbeat IPC: 0.14993 cumulative IPC: 0.15183 (Simulation time: 0 hr 14 min 32 sec) 
Heartbeat CPU  0 instructions:   95000001 cycles:  381444823 heartbeat IPC: 0.11888 cumulative IPC: 0.12548 (Simulation time: 0 hr 14 min 35 sec) 
Heartbeat CPU  3 instructions:  115000001 cycles:  385040932 heartbeat IPC: 0.14969 cumulative IPC: 0.15482 (Simulation time: 0 hr 14 min 40 sec) 
*** Reached end of trace for Core: 1 Repeating trace: /data3/CLOUD9/traces/cloud9_phase0_core1.trace.xz
Heartbeat CPU  1 instructions:  100000000 cycles:  385239463 heartbeat IPC: 0.14318 cumulative IPC: 0.12821 (Simulation time: 0 hr 14 min 41 sec) 
Heartbeat CPU  2 instructions:  112000000 cycles:  385812773 heartbeat IPC: 0.14991 cumulative IPC: 0.15179 (Simulation time: 0 hr 14 min 42 sec) 
Heartbeat CPU  0 instructions:   96000000 cycles:  389801379 heartbeat IPC: 0.11967 cumulative IPC: 0.12535 (Simulation time: 0 hr 14 min 48 sec) 
Heartbeat CPU  3 instructions:  116000000 cycles:  391444412 heartbeat IPC: 0.15616 cumulative IPC: 0.15484 (Simulation time: 0 hr 14 min 50 sec) 
Heartbeat CPU  2 instructions:  113000000 cycles:  392474402 heartbeat IPC: 0.15011 cumulative IPC: 0.15176 (Simulation time: 0 hr 14 min 52 sec) 
Heartbeat CPU  1 instructions:  101000002 cycles:  393505322 heartbeat IPC: 0.12098 cumulative IPC: 0.12805 (Simulation time: 0 hr 14 min 53 sec) 
Heartbeat CPU  3 instructions:  117000003 cycles:  397742366 heartbeat IPC: 0.15878 cumulative IPC: 0.15491 (Simulation time: 0 hr 14 min 59 sec) 
Heartbeat CPU  0 instructions:   97000001 cycles:  398240597 heartbeat IPC: 0.11849 cumulative IPC: 0.12519 (Simulation time: 0 hr 15 min 0 sec) 
Heartbeat CPU  2 instructions:  114000001 cycles:  399156836 heartbeat IPC: 0.14965 cumulative IPC: 0.15172 (Simulation time: 0 hr 15 min 2 sec) 
Heartbeat CPU  1 instructions:  102000002 cycles:  401974136 heartbeat IPC: 0.11808 cumulative IPC: 0.12783 (Simulation time: 0 hr 15 min 6 sec) 
Heartbeat CPU  3 instructions:  118000001 cycles:  404048586 heartbeat IPC: 0.15857 cumulative IPC: 0.15497 (Simulation time: 0 hr 15 min 9 sec) 
Heartbeat CPU  2 instructions:  115000003 cycles:  405843737 heartbeat IPC: 0.14955 cumulative IPC: 0.15169 (Simulation time: 0 hr 15 min 11 sec) 
Heartbeat CPU  0 instructions:   98000003 cycles:  406672638 heartbeat IPC: 0.11860 cumulative IPC: 0.12505 (Simulation time: 0 hr 15 min 12 sec) 
Heartbeat CPU  1 instructions:  103000003 cycles:  410276179 heartbeat IPC: 0.12045 cumulative IPC: 0.12767 (Simulation time: 0 hr 15 min 18 sec) 
Heartbeat CPU  3 instructions:  119000000 cycles:  410348034 heartbeat IPC: 0.15874 cumulative IPC: 0.15503 (Simulation time: 0 hr 15 min 18 sec) 
Heartbeat CPU  2 instructions:  116000000 cycles:  412518830 heartbeat IPC: 0.14981 cumulative IPC: 0.15165 (Simulation time: 0 hr 15 min 21 sec) 
Heartbeat CPU  0 instructions:   99000003 cycles:  415130923 heartbeat IPC: 0.11823 cumulative IPC: 0.12490 (Simulation time: 0 hr 15 min 25 sec) 
Heartbeat CPU  3 instructions:  120000000 cycles:  416661061 heartbeat IPC: 0.15840 cumulative IPC: 0.15508 (Simulation time: 0 hr 15 min 27 sec) 
Heartbeat CPU  1 instructions:  104000000 cycles:  418624974 heartbeat IPC: 0.11978 cumulative IPC: 0.12750 (Simulation time: 0 hr 15 min 30 sec) 
Heartbeat CPU  2 instructions:  117000000 cycles:  419168811 heartbeat IPC: 0.15038 cumulative IPC: 0.15163 (Simulation time: 0 hr 15 min 30 sec) 
Heartbeat CPU  3 instructions:  121000000 cycles:  422929698 heartbeat IPC: 0.15952 cumulative IPC: 0.15515 (Simulation time: 0 hr 15 min 36 sec) 
*** Reached end of trace for Core: 0 Repeating trace: /data3/CLOUD9/traces/cloud9_phase0_core0.trace.xz
Heartbeat CPU  0 instructions:  100000000 cycles:  423606155 heartbeat IPC: 0.11799 cumulative IPC: 0.12475 (Simulation time: 0 hr 15 min 37 sec) 
Heartbeat CPU  2 instructions:  118000002 cycles:  425879332 heartbeat IPC: 0.14902 cumulative IPC: 0.15159 (Simulation time: 0 hr 15 min 40 sec) 
Heartbeat CPU  1 instructions:  105000003 cycles:  426995472 heartbeat IPC: 0.11947 cumulative IPC: 0.12734 (Simulation time: 0 hr 15 min 42 sec) 
Heartbeat CPU  3 instructions:  122000003 cycles:  429239752 heartbeat IPC: 0.15848 cumulative IPC: 0.15521 (Simulation time: 0 hr 15 min 45 sec) 
Heartbeat CPU  0 instructions:  101000001 cycles:  432145937 heartbeat IPC: 0.11710 cumulative IPC: 0.12459 (Simulation time: 0 hr 15 min 49 sec) 
Heartbeat CPU  2 instructions:  119000001 cycles:  432543320 heartbeat IPC: 0.15006 cumulative IPC: 0.15156 (Simulation time: 0 hr 15 min 50 sec) 
Heartbeat CPU  3 instructions:  123000001 cycles:  435543663 heartbeat IPC: 0.15863 cumulative IPC: 0.15526 (Simulation time: 0 hr 15 min 55 sec) 
Heartbeat CPU  1 instructions:  106000001 cycles:  435591330 heartbeat IPC: 0.11633 cumulative IPC: 0.12711 (Simulation time: 0 hr 15 min 55 sec) 
Heartbeat CPU  0 instructions:  102000000 cycles:  437023926 heartbeat IPC: 0.20500 cumulative IPC: 0.12554 (Simulation time: 0 hr 15 min 57 sec) 
Heartbeat CPU  2 instructions:  120000000 cycles:  439268690 heartbeat IPC: 0.14869 cumulative IPC: 0.15152 (Simulation time: 0 hr 16 min 1 sec) 
Heartbeat CPU  3 instructions:  124000000 cycles:  441840861 heartbeat IPC: 0.15880 cumulative IPC: 0.15531 (Simulation time: 0 hr 16 min 5 sec) 
Heartbeat CPU  0 instructions:  103000002 cycles:  442012434 heartbeat IPC: 0.20046 cumulative IPC: 0.12643 (Simulation time: 0 hr 16 min 5 sec) 
Heartbeat CPU  1 instructions:  107000001 cycles:  443975947 heartbeat IPC: 0.11927 cumulative IPC: 0.12695 (Simulation time: 0 hr 16 min 8 sec) 
Heartbeat CPU  2 instructions:  121000001 cycles:  445939433 heartbeat IPC: 0.14991 cumulative IPC: 0.15149 (Simulation time: 0 hr 16 min 11 sec) 
Heartbeat CPU  3 instructions:  125000001 cycles:  448172698 heartbeat IPC: 0.15793 cumulative IPC: 0.15535 (Simulation time: 0 hr 16 min 14 sec) 
Heartbeat CPU  0 instructions:  104000000 cycles:  449992856 heartbeat IPC: 0.12531 cumulative IPC: 0.12641 (Simulation time: 0 hr 16 min 17 sec) 
Heartbeat CPU  1 instructions:  108000000 cycles:  452430511 heartbeat IPC: 0.11828 cumulative IPC: 0.12678 (Simulation time: 0 hr 16 min 20 sec) 
Heartbeat CPU  2 instructions:  122000002 cycles:  452637650 heartbeat IPC: 0.14929 cumulative IPC: 0.15146 (Simulation time: 0 hr 16 min 20 sec) 
Heartbeat CPU  3 instructions:  126000003 cycles:  454482576 heartbeat IPC: 0.15848 cumulative IPC: 0.15540 (Simulation time: 0 hr 16 min 23 sec) 
Heartbeat CPU  0 instructions:  105000000 cycles:  458355919 heartbeat IPC: 0.11957 cumulative IPC: 0.12628 (Simulation time: 0 hr 16 min 29 sec) 
Heartbeat CPU  2 instructions:  123000000 cycles:  459306621 heartbeat IPC: 0.14995 cumulative IPC: 0.15143 (Simulation time: 0 hr 16 min 30 sec) 
Heartbeat CPU  3 instructions:  127000000 cycles:  460757406 heartbeat IPC: 0.15937 cumulative IPC: 0.15545 (Simulation time: 0 hr 16 min 32 sec) 
Heartbeat CPU  1 instructions:  109000002 cycles:  460807564 heartbeat IPC: 0.11937 cumulative IPC: 0.12664 (Simulation time: 0 hr 16 min 32 sec) 
Heartbeat CPU  1 instructions:  110000002 cycles:  465423640 heartbeat IPC: 0.21663 cumulative IPC: 0.12758 (Simulation time: 0 hr 16 min 40 sec) 
Heartbeat CPU  2 instructions:  124000000 cycles:  466023974 heartbeat IPC: 0.14887 cumulative IPC: 0.15140 (Simulation time: 0 hr 16 min 41 sec) 
Heartbeat CPU  0 instructions:  106000001 cycles:  466688455 heartbeat IPC: 0.12001 cumulative IPC: 0.12616 (Simulation time: 0 hr 16 min 42 sec) 
Heartbeat CPU  3 instructions:  128000000 cycles:  467048384 heartbeat IPC: 0.15896 cumulative IPC: 0.15550 (Simulation time: 0 hr 16 min 42 sec) 
Heartbeat CPU  1 instructions:  111000001 cycles:  470785557 heartbeat IPC: 0.18650 cumulative IPC: 0.12828 (Simulation time: 0 hr 16 min 48 sec) 
Heartbeat CPU  2 instructions:  125000001 cycles:  472785503 heartbeat IPC: 0.14790 cumulative IPC: 0.15134 (Simulation time: 0 hr 16 min 51 sec) 
Heartbeat CPU  3 instructions:  129000001 cycles:  473339858 heartbeat IPC: 0.15895 cumulative IPC: 0.15555 (Simulation time: 0 hr 16 min 52 sec) 
Heartbeat CPU  0 instructions:  107000002 cycles:  475124162 heartbeat IPC: 0.11854 cumulative IPC: 0.12602 (Simulation time: 0 hr 16 min 54 sec) 
Heartbeat CPU  1 instructions:  112000000 cycles:  478985963 heartbeat IPC: 0.12195 cumulative IPC: 0.12817 (Simulation time: 0 hr 17 min 0 sec) 
Heartbeat CPU  2 instructions:  126000001 cycles:  479529326 heartbeat IPC: 0.14828 cumulative IPC: 0.15130 (Simulation time: 0 hr 17 min 0 sec) 
Heartbeat CPU  3 instructions:  130000001 cycles:  479625472 heartbeat IPC: 0.15909 cumulative IPC: 0.15560 (Simulation time: 0 hr 17 min 1 sec) 
Heartbeat CPU  0 instructions:  108000000 cycles:  483525077 heartbeat IPC: 0.11903 cumulative IPC: 0.12589 (Simulation time: 0 hr 17 min 6 sec) 
Heartbeat CPU  3 instructions:  131000002 cycles:  485962054 heartbeat IPC: 0.15781 cumulative IPC: 0.15563 (Simulation time: 0 hr 17 min 10 sec) 
Heartbeat CPU  2 instructions:  127000001 cycles:  486293559 heartbeat IPC: 0.14784 cumulative IPC: 0.15125 (Simulation time: 0 hr 17 min 10 sec) 
Heartbeat CPU  1 instructions:  113000000 cycles:  487227397 heartbeat IPC: 0.12134 cumulative IPC: 0.12805 (Simulation time: 0 hr 17 min 11 sec) 
Heartbeat CPU  0 instructions:  109000003 cycles:  491906012 heartbeat IPC: 0.11932 cumulative IPC: 0.12578 (Simulation time: 0 hr 17 min 18 sec) 
Heartbeat CPU  3 instructions:  132000000 cycles:  492277091 heartbeat IPC: 0.15835 cumulative IPC: 0.15567 (Simulation time: 0 hr 17 min 18 sec) 
Heartbeat CPU  2 instructions:  128000000 cycles:  493060291 heartbeat IPC: 0.14778 cumulative IPC: 0.15120 (Simulation time: 0 hr 17 min 20 sec) 
Heartbeat CPU  1 instructions:  114000000 cycles:  495466243 heartbeat IPC: 0.12138 cumulative IPC: 0.12793 (Simulation time: 0 hr 17 min 23 sec) 
Heartbeat CPU  3 instructions:  133000000 cycles:  498594583 heartbeat IPC: 0.15829 cumulative IPC: 0.15570 (Simulation time: 0 hr 17 min 27 sec) 
Heartbeat CPU  2 instructions:  129000001 cycles:  499876209 heartbeat IPC: 0.14672 cumulative IPC: 0.15113 (Simulation time: 0 hr 17 min 29 sec) 
Heartbeat CPU  0 instructions:  110000002 cycles:  500354915 heartbeat IPC: 0.11836 cumulative IPC: 0.12564 (Simulation time: 0 hr 17 min 30 sec) 
Heartbeat CPU  1 instructions:  115000003 cycles:  503728323 heartbeat IPC: 0.12104 cumulative IPC: 0.12781 (Simulation time: 0 hr 17 min 35 sec) 
Heartbeat CPU  3 instructions:  134000003 cycles:  504909544 heartbeat IPC: 0.15835 cumulative IPC: 0.15574 (Simulation time: 0 hr 17 min 36 sec) 
Heartbeat CPU  2 instructions:  130000002 cycles:  506696124 heartbeat IPC: 0.14663 cumulative IPC: 0.15107 (Simulation time: 0 hr 17 min 39 sec) 
Heartbeat CPU  0 instructions:  111000001 cycles:  508862243 heartbeat IPC: 0.11755 cumulative IPC: 0.12550 (Simulation time: 0 hr 17 min 42 sec) 
Heartbeat CPU  3 instructions:  135000003 cycles:  511226749 heartbeat IPC: 0.15830 cumulative IPC: 0.15577 (Simulation time: 0 hr 17 min 45 sec) 
Heartbeat CPU  1 instructions:  116000000 cycles:  512059077 heartbeat IPC: 0.12004 cumulative IPC: 0.12768 (Simulation time: 0 hr 17 min 46 sec) 
Heartbeat CPU  2 instructions:  131000002 cycles:  513496193 heartbeat IPC: 0.14706 cumulative IPC: 0.15101 (Simulation time: 0 hr 17 min 48 sec) 
Heartbeat CPU  0 instructions:  112000000 cycles:  517300344 heartbeat IPC: 0.11851 cumulative IPC: 0.12538 (Simulation time: 0 hr 17 min 54 sec) 
Heartbeat CPU  3 instructions:  136000000 cycles:  517551113 heartbeat IPC: 0.15812 cumulative IPC: 0.15580 (Simulation time: 0 hr 17 min 54 sec) 
Heartbeat CPU  2 instructions:  132000000 cycles:  520306451 heartbeat IPC: 0.14684 cumulative IPC: 0.15096 (Simulation time: 0 hr 17 min 58 sec) 
Heartbeat CPU  1 instructions:  117000002 cycles:  520396400 heartbeat IPC: 0.11994 cumulative IPC: 0.12755 (Simulation time: 0 hr 17 min 58 sec) 
Heartbeat CPU  3 instructions:  137000001 cycles:  523939976 heartbeat IPC: 0.15652 cumulative IPC: 0.15581 (Simulation time: 0 hr 18 min 3 sec) 
Heartbeat CPU  0 instructions:  113000002 cycles:  525995472 heartbeat IPC: 0.11501 cumulative IPC: 0.12520 (Simulation time: 0 hr 18 min 6 sec) 
Heartbeat CPU  2 instructions:  133000000 cycles:  527088390 heartbeat IPC: 0.14745 cumulative IPC: 0.15091 (Simulation time: 0 hr 18 min 8 sec) 
Heartbeat CPU  1 instructions:  118000003 cycles:  528701820 heartbeat IPC: 0.12040 cumulative IPC: 0.12743 (Simulation time: 0 hr 18 min 10 sec) 
Heartbeat CPU  3 instructions:  138000002 cycles:  530317344 heartbeat IPC: 0.15680 cumulative IPC: 0.15582 (Simulation time: 0 hr 18 min 12 sec) 
Heartbeat CPU  2 instructions:  134000003 cycles:  533895147 heartbeat IPC: 0.14691 cumulative IPC: 0.15086 (Simulation time: 0 hr 18 min 17 sec) 
Heartbeat CPU  0 instructions:  114000000 cycles:  534500446 heartbeat IPC: 0.11758 cumulative IPC: 0.12508 (Simulation time: 0 hr 18 min 18 sec) 
Heartbeat CPU  3 instructions:  139000001 cycles:  536696458 heartbeat IPC: 0.15676 cumulative IPC: 0.15583 (Simulation time: 0 hr 18 min 21 sec) 
Heartbeat CPU  1 instructions:  119000002 cycles:  537053847 heartbeat IPC: 0.11973 cumulative IPC: 0.12731 (Simulation time: 0 hr 18 min 21 sec) 
Heartbeat CPU  2 instructions:  135000000 cycles:  540701559 heartbeat IPC: 0.14692 cumulative IPC: 0.15081 (Simulation time: 0 hr 18 min 27 sec) 
Heartbeat CPU  0 instructions:  115000002 cycles:  543094121 heartbeat IPC: 0.11636 cumulative IPC: 0.12493 (Simulation time: 0 hr 18 min 30 sec) 
Heartbeat CPU  3 instructions:  140000000 cycles:  543104201 heartbeat IPC: 0.15606 cumulative IPC: 0.15584 (Simulation time: 0 hr 18 min 30 sec) 
Heartbeat CPU  1 instructions:  120000000 cycles:  545452564 heartbeat IPC: 0.11907 cumulative IPC: 0.12718 (Simulation time: 0 hr 18 min 33 sec) 
Heartbeat CPU  2 instructions:  136000000 cycles:  547488331 heartbeat IPC: 0.14735 cumulative IPC: 0.15076 (Simulation time: 0 hr 18 min 36 sec) 
Heartbeat CPU  3 instructions:  141000000 cycles:  549503551 heartbeat IPC: 0.15627 cumulative IPC: 0.15584 (Simulation time: 0 hr 18 min 39 sec) 
Heartbeat CPU  0 instructions:  116000000 cycles:  550775493 heartbeat IPC: 0.13018 cumulative IPC: 0.12501 (Simulation time: 0 hr 18 min 41 sec) 
Heartbeat CPU  1 instructions:  121000000 cycles:  554045709 heartbeat IPC: 0.11637 cumulative IPC: 0.12700 (Simulation time: 0 hr 18 min 46 sec) 
Heartbeat CPU  2 instructions:  137000002 cycles:  554287753 heartbeat IPC: 0.14707 cumulative IPC: 0.15071 (Simulation time: 0 hr 18 min 47 sec) 
Heartbeat CPU  0 instructions:  117000003 cycles:  555321014 heartbeat IPC: 0.22000 cumulative IPC: 0.12582 (Simulation time: 0 hr 18 min 48 sec) 
Heartbeat CPU  3 instructions:  142000001 cycles:  555814483 heartbeat IPC: 0.15846 cumulative IPC: 0.15587 (Simulation time: 0 hr 18 min 49 sec) 
[...]
Core_2_L1D_prefetch_miss 0
Core_2_L1D_writebacks 0
Core_2_L1D_writeback_hit 0
Core_2_L1D_writeback_miss 0
Core_2_L1D_prefetch_requested 0
Core_2_L1D_prefetch_dropped 0
Core_2_L1D_prefetch_issued 0
Core_2_L1D_prefetch_filled 0
Core_2_L1D_prefetch_useful 0
Core_2_L1D_prefetch_useless 0
Core_2_L1D_prefetch_late 0
Core_2_L1D_average_miss_latency 190.42342

Core_2_L1D_rq_access 24223365
Core_2_L1D_rq_forward 0
Core_2_L1D_rq_merged 7302603
Core_2_L1D_rq_to_cache 16920666
Core_2_L1D_rq_full 0

Core_2_L1D_wq_access 11170401
Core_2_L1D_wq_forward 96
Core_2_L1D_wq_merged 132504
Core_2_L1D_wq_to_cache 11037897
Core_2_L1D_wq_full 0

Core_2_L1D_pq_access 0
Core_2_L1D_pq_forward 0
Core_2_L1D_pq_merged 0
Core_2_L1D_pq_to_cache 0
Core_2_L1D_pq_full 0

Core_2_L1D_acc_epochs 190565
Core_2_L1D_acc_level_0 190565
Core_2_L1D_acc_level_1 0
Core_2_L1D_acc_level_2 0
Core_2_L1D_acc_level_3 0
Core_2_L1D_acc_level_4 0
Core_2_L1D_acc_level_5 0
Core_2_L1D_acc_level_6 0
Core_2_L1D_acc_level_7 0
Core_2_L1D_acc_level_8 0
Core_2_L1D_acc_level_9 0

Core_2_L1I_total_access 41876659
Core_2_L1I_total_hit 41876008
Core_2_L1I_total_miss 651
Core_2_L1I_loads 41876659
Core_2_L1I_load_hit 41876008
Core_2_L1I_load_miss 651
Core_2_L1I_RFOs 0
Core_2_L1I_RFO_hit 0
Core_2_L1I_RFO_miss 0
Core_2_L1I_prefetches 0
Core_2_L1I_prefetch_hit 0
Core_2_L1I_prefetch_miss 0
Core_2_L1I_writebacks 0
Core_2_L1I_writeback_hit 0
Core_2_L1I_writeback_miss 0
Core_2_L1I_prefetch_requested 0
Core_2_L1I_prefetch_dropped 0
Core_2_L1I_prefetch_issued 0
Core_2_L1I_prefetch_filled 0
Core_2_L1I_prefetch_useful 0
Core_2_L1I_prefetch_useless 0
Core_2_L1I_prefetch_late 0
Core_2_L1I_average_miss_latency 250.30108

Core_2_L1I_rq_access 179697720
Core_2_L1I_rq_forward 0
Core_2_L1I_rq_merged 129717421
Core_2_L1I_rq_to_cache 49980299
Core_2_L1I_rq_full 0

Core_2_L1I_wq_access 0
Core_2_L1I_wq_forward 0
Core_2_L1I_wq_merged 0
Core_2_L1I_wq_to_cache 0
Core_2_L1I_wq_full 0

Core_2_L1I_pq_access 0
Core_2_L1I_pq_forward 0
Core_2_L1I_pq_merged 0
Core_2_L1I_pq_to_cache 0
Core_2_L1I_pq_full 0

Core_2_L1I_acc_epochs 190565
Core_2_L1I_acc_level_0 190565
Core_2_L1I_acc_level_1 0
Core_2_L1I_acc_level_2 0
Core_2_L1I_acc_level_3 0
Core_2_L1I_acc_level_4 0
Core_2_L1I_acc_level_5 0
Core_2_L1I_acc_level_6 0
Core_2_L1I_acc_level_7 0
Core_2_L1I_acc_level_8 0
Core_2_L1I_acc_level_9 0

Core_2_L2C_total_access 539552
Core_2_L2C_total_hit 231397
Core_2_L2C_total_miss 308155
Core_2_L2C_loads 333842
Core_2_L2C_load_hit 65467
Core_2_L2C_load_miss 268375
Core_2_L2C_RFOs 859
Core_2_L2C_RFO_hit 82
Core_2_L2C_RFO_miss 777
Core_2_L2C_prefetches 56481
Core_2_L2C_prefetch_hit 17618
Core_2_L2C_prefetch_miss 38863
Core_2_L2C_writebacks 148370
Core_2_L2C_writeback_hit 148230
Core_2_L2C_writeback_miss 140
Core_2_L2C_prefetch_requested 555635
Core_2_L2C_prefetch_dropped 0
Core_2_L2C_prefetch_issued 555635
Core_2_L2C_prefetch_filled 61142
Core_2_L2C_prefetch_useful 58876
Core_2_L2C_prefetch_useless 2236
Core_2_L2C_prefetch_late 884
Core_2_L2C_average_miss_latency 157.74993

Core_2_L2C_rq_access 400420
Core_2_L2C_rq_forward 0
Core_2_L2C_rq_merged 0
Core_2_L2C_rq_to_cache 400420
Core_2_L2C_rq_full 0

Core_2_L2C_wq_access 177175
Core_2_L2C_wq_forward 0
Core_2_L2C_wq_merged 0
Core_2_L2C_wq_to_cache 177175
Core_2_L2C_wq_full 0

Core_2_L2C_pq_access 555635
Core_2_L2C_pq_forward 0
Core_2_L2C_pq_merged 4937
Core_2_L2C_pq_to_cache 550698
Core_2_L2C_pq_full 0

Core_2_L2C_acc_epochs 190565
Core_2_L2C_acc_level_0 115359
Core_2_L2C_acc_level_1 19613
Core_2_L2C_acc_level_2 17744
Core_2_L2C_acc_level_3 6464
Core_2_L2C_acc_level_4 1364
Core_2_L2C_acc_level_5 16410
Core_2_L2C_acc_level_6 3255
Core_2_L2C_acc_level_7 2164
Core_2_L2C_acc_level_8 1119
Core_2_L2C_acc_level_9 7073

Core_2_LLC_total_access 737831
Core_2_LLC_total_hit 534745
Core_2_LLC_total_miss 203086
Core_2_LLC_loads 267641
Core_2_LLC_load_hit 147349
Core_2_LLC_load_miss 120292
Core_2_LLC_RFOs 777
Core_2_LLC_RFO_hit 172
Core_2_LLC_RFO_miss 605
Core_2_LLC_prefetches 325564
Core_2_LLC_prefetch_hit 247618
Core_2_LLC_prefetch_miss 77946
Core_2_LLC_writebacks 143849
Core_2_LLC_writeback_hit 139606
Core_2_LLC_writeback_miss 4243
Core_2_LLC_prefetch_requested 0
Core_2_LLC_prefetch_dropped 0
Core_2_LLC_prefetch_issued 0
Core_2_LLC_prefetch_filled 500854
Core_2_LLC_prefetch_useful 300177
Core_2_LLC_prefetch_useless 184908
Core_2_LLC_prefetch_late 1777
Core_2_LLC_average_miss_latency 813.69659

Core_2_LLC_rq_access 2110102
Core_2_LLC_rq_forward 0
Core_2_LLC_rq_merged 0
Core_2_LLC_rq_to_cache 2110097
Core_2_LLC_rq_full 0

Core_2_LLC_wq_access 1452462
Core_2_LLC_wq_forward 5
Core_2_LLC_wq_merged 0
Core_2_LLC_wq_to_cache 1452462
Core_2_LLC_wq_full 0

Core_2_LLC_pq_access 5017372
Core_2_LLC_pq_forward 0
Core_2_LLC_pq_merged 10416
Core_2_LLC_pq_to_cache 5006955
Core_2_LLC_pq_full 0

Core_2_LLC_acc_epochs 1189290
Core_2_LLC_acc_level_0 950185
Core_2_LLC_acc_level_1 78798
Core_2_LLC_acc_level_2 60246
Core_2_LLC_acc_level_3 16042
Core_2_LLC_acc_level_4 4382
Core_2_LLC_acc_level_5 47589
Core_2_LLC_acc_level_6 6673
Core_2_LLC_acc_level_7 7323
Core_2_LLC_acc_level_8 2763
Core_2_LLC_acc_level_9 15289

Core_2_major_page_fault 0
Core_2_minor_page_fault 2062

Core_3_instructions 150000002
Core_3_cycles 960981546
Core_3_IPC 0.15609

Core_3_branch_prediction_accuracy 99.75463
Core_3_branch_MPKI 0.51026
Core_3_average_ROB_occupancy_at_mispredict 239.54433

Core_3_L1D_total_access 22848098
Core_3_L1D_total_hit 22520768
Core_3_L1D_total_miss 327330
Core_3_L1D_loads 13863564
Core_3_L1D_load_hit 13536622
Core_3_L1D_load_miss 326942
Core_3_L1D_RFOs 8984534
Core_3_L1D_RFO_hit 8984146
Core_3_L1D_RFO_miss 388
Core_3_L1D_prefetches 0
Core_3_L1D_prefetch_hit 0
Core_3_L1D_prefetch_miss 0
Core_3_L1D_writebacks 0
Core_3_L1D_writeback_hit 0
Core_3_L1D_writeback_miss 0
Core_3_L1D_prefetch_requested 0
Core_3_L1D_prefetch_dropped 0
Core_3_L1D_prefetch_issued 0
Core_3_L1D_prefetch_filled 0
Core_3_L1D_prefetch_useful 0
Core_3_L1D_prefetch_useless 0
Core_3_L1D_prefetch_late 0
Core_3_L1D_average_miss_latency 195.82234

Core_3_L1D_rq_access 25118767
Core_3_L1D_rq_forward 0
Core_3_L1D_rq_merged 7842516
Core_3_L1D_rq_to_cache 17276065
Core_3_L1D_rq_full 0

Core_3_L1D_wq_access 11377277
Core_3_L1D_wq_forward 186
Core_3_L1D_wq_merged 190425
Core_3_L1D_wq_to_cache 11186852
Core_3_L1D_wq_full 0

Core_3_L1D_pq_access 0
Core_3_L1D_pq_forward 0
Core_3_L1D_pq_merged 0
Core_3_L1D_pq_to_cache 0
Core_3_L1D_pq_full 0

Core_3_L1D_acc_epochs 191612
Core_3_L1D_acc_level_0 191612
Core_3_L1D_acc_level_1 0
Core_3_L1D_acc_level_2 0
Core_3_L1D_acc_level_3 0
Core_3_L1D_acc_level_4 0
Core_3_L1D_acc_level_5 0
Core_3_L1D_acc_level_6 0
Core_3_L1D_acc_level_7 0
Core_3_L1D_acc_level_8 0
Core_3_L1D_acc_level_9 0

Core_3_L1I_total_access 42636840
Core_3_L1I_total_hit 42636840
Core_3_L1I_total_miss 0
Core_3_L1I_loads 42636840
Core_3_L1I_load_hit 42636840
Core_3_L1I_load_miss 0
Core_3_L1I_RFOs 0
Core_3_L1I_RFO_hit 0
Core_3_L1I_RFO_miss 0
Core_3_L1I_prefetches 0
Core_3_L1I_prefetch_hit 0
Core_3_L1I_prefetch_miss 0
Core_3_L1I_writebacks 0
Core_3_L1I_writeback_hit 0
Core_3_L1I_writeback_miss 0
Core_3_L1I_prefetch_requested 0
Core_3_L1I_prefetch_dropped 0
Core_3_L1I_prefetch_issued 0
Core_3_L1I_prefetch_filled 0
Core_3_L1I_prefetch_useful 0
Core_3_L1I_prefetch_useless 0
Core_3_L1I_prefetch_late 0
Core_3_L1I_average_miss_latency -nan

Core_3_L1I_rq_access 186757549
Core_3_L1I_rq_forward 0
Core_3_L1I_rq_merged 133680892
Core_3_L1I_rq_to_cache 53076657
Core_3_L1I_rq_full 0

Core_3_L1I_wq_access 0
Core_3_L1I_wq_forward 0
Core_3_L1I_wq_merged 0
Core_3_L1I_wq_to_cache 0
Core_3_L1I_wq_full 0

Core_3_L1I_pq_access 0
Core_3_L1I_pq_forward 0
Core_3_L1I_pq_merged 0
Core_3_L1I_pq_to_cache 0
Core_3_L1I_pq_full 0

Core_3_L1I_acc_epochs 191612
Core_3_L1I_acc_level_0 191612
Core_3_L1I_acc_level_1 0
Core_3_L1I_acc_level_2 0
Core_3_L1I_acc_level_3 0
Core_3_L1I_acc_level_4 0
Core_3_L1I_acc_level_5 0
Core_3_L1I_acc_level_6 0
Core_3_L1I_acc_level_7 0
Core_3_L1I_acc_level_8 0
Core_3_L1I_acc_level_9 0

Core_3_L2C_total_access 533465
Core_3_L2C_total_hit 233931
Core_3_L2C_total_miss 299534
Core_3_L2C_loads 326942
Core_3_L2C_load_hit 67307
Core_3_L2C_load_miss 259635
Core_3_L2C_RFOs 388
Core_3_L2C_RFO_hit 36
Core_3_L2C_RFO_miss 352
Core_3_L2C_prefetches 59996
Core_3_L2C_prefetch_hit 20561
Core_3_L2C_prefetch_miss 39435
Core_3_L2C_writebacks 146139
Core_3_L2C_writeback_hit 146027
Core_3_L2C_writeback_miss 112
Core_3_L2C_prefetch_requested 584254
Core_3_L2C_prefetch_dropped 0
Core_3_L2C_prefetch_issued 584254
Core_3_L2C_prefetch_filled 65564
Core_3_L2C_prefetch_useful 63118
Core_3_L2C_prefetch_useless 2415
Core_3_L2C_prefetch_late 829
Core_3_L2C_average_miss_latency 163.57310

Core_3_L2C_rq_access 407615
Core_3_L2C_rq_forward 0
Core_3_L2C_rq_merged 0
Core_3_L2C_rq_to_cache 407615
Core_3_L2C_rq_full 0

Core_3_L2C_wq_access 181946
Core_3_L2C_wq_forward 0
Core_3_L2C_wq_merged 0
Core_3_L2C_wq_to_cache 181946
Core_3_L2C_wq_full 0

Core_3_L2C_pq_access 584254
Core_3_L2C_pq_forward 0
Core_3_L2C_pq_merged 5454
Core_3_L2C_pq_to_cache 578800
Core_3_L2C_pq_full 0

Core_3_L2C_acc_epochs 191612
Core_3_L2C_acc_level_0 115725
Core_3_L2C_acc_level_1 18890
Core_3_L2C_acc_level_2 17179
Core_3_L2C_acc_level_3 6749
Core_3_L2C_acc_level_4 1560
Core_3_L2C_acc_level_5 15853
Core_3_L2C_acc_level_6 3662
Core_3_L2C_acc_level_7 2478
Core_3_L2C_acc_level_8 1324
Core_3_L2C_acc_level_9 8192

Core_3_LLC_total_access 726681
Core_3_LLC_total_hit 530340
Core_3_LLC_total_miss 196341
Core_3_LLC_loads 258964
Core_3_LLC_load_hit 142936
Core_3_LLC_load_miss 116028
Core_3_LLC_RFOs 352
Core_3_LLC_RFO_hit 46
Core_3_LLC_RFO_miss 306
Core_3_LLC_prefetches 325580
Core_3_LLC_prefetch_hit 249534
Core_3_LLC_prefetch_miss 76046
Core_3_LLC_writebacks 141785
Core_3_LLC_writeback_hit 137824
Core_3_LLC_writeback_miss 3961
Core_3_LLC_prefetch_requested 0
Core_3_LLC_prefetch_dropped 0
Core_3_LLC_prefetch_issued 0
Core_3_LLC_prefetch_filled 500854
Core_3_LLC_prefetch_useful 300177
Core_3_LLC_prefetch_useless 184908
Core_3_LLC_prefetch_late 1777
Core_3_LLC_average_miss_latency 841.64991

Core_3_LLC_rq_access 2110102
Core_3_LLC_rq_forward 0
Core_3_LLC_rq_merged 0
Core_3_LLC_rq_to_cache 2110097
Core_3_LLC_rq_full 0

Core_3_LLC_wq_access 1452462
Core_3_LLC_wq_forward 5
Core_3_LLC_wq_merged 0
Core_3_LLC_wq_to_cache 1452462
Core_3_LLC_wq_full 0

Core_3_LLC_pq_access 5017372
Core_3_LLC_pq_forward 0
Core_3_LLC_pq_merged 10416
Core_3_LLC_pq_to_cache 5006955
Core_3_LLC_pq_full 0

Core_3_LLC_acc_epochs 1189290
Core_3_LLC_acc_level_0 950185
Core_3_LLC_acc_level_1 78798
Core_3_LLC_acc_level_2 60246
Core_3_LLC_acc_level_3 16042
Core_3_LLC_acc_level_4 4382
Core_3_LLC_acc_level_5 47589
Core_3_LLC_acc_level_6 6673
Core_3_LLC_acc_level_7 7323
Core_3_LLC_acc_level_8 2763
Core_3_LLC_acc_level_9 15289

Core_3_major_page_fault 0
Core_3_minor_page_fault 1717

spp.pref.total 2261207
spp.pref.at_L2 303420
spp.pref.at_LLC 1957787

spp.depth.max 8
spp.depth.min 0
spp.depth.avg 1

spp.breadth.max 2
spp.breadth.min 0
spp.breadth.avg 0

delta_1 667144
delta_-2 647103
delta_-1 418077
delta_-12 402761
delta_2 165214
delta_4 2757
delta_6 622
delta_-5 484
delta_-8 371
delta_5 328
delta_49 204
delta_3 173
delta_53 127
delta_25 99
delta_47 82
delta_-7 75
delta_46 63
delta_13 60
delta_7 51
delta_54 38
delta_11 34
delta_-6 34
delta_16 29
delta_8 17
delta_50 17
delta_10 16
delta_-23 15
delta_51 13
delta_28 12
delta_58 12
delta_-17 10
delta_-16 9
delta_-3 8
delta_-63 7
delta_-11 6
delta_34 5
delta_35 4
delta_15 3
delta_32 3
delta_26 3
delta_-18 3
delta_17 2
delta_-32 2
delta_31 2
delta_52 2
delta_30 1

depth_1_delta_-12 213069
depth_1_delta_1 169825
depth_1_delta_-2 142221
depth_1_delta_-1 94218
depth_1_delta_2 53633
depth_1_delta_4 2726
depth_1_delta_6 621
depth_1_delta_-5 469
depth_1_delta_-8 357
depth_1_delta_5 328
depth_1_delta_49 190
depth_1_delta_3 173
depth_1_delta_53 100
depth_1_delta_25 79
depth_1_delta_-7 75
depth_1_delta_47 72
depth_1_delta_46 63
depth_1_delta_13 54
depth_1_delta_7 51
depth_1_delta_54 38
depth_1_delta_11 34
depth_1_delta_-6 34
depth_1_delta_16 29
depth_1_delta_8 17
depth_1_delta_50 17
depth_1_delta_10 16
depth_1_delta_-23 15
depth_1_delta_51 13
depth_1_delta_28 12
depth_1_delta_58 12
depth_1_delta_-17 10
depth_1_delta_-16 9
depth_1_delta_-3 8
depth_1_delta_-63 7
depth_1_delta_-11 6
depth_1_delta_34 5
depth_1_delta_35 4
depth_1_delta_15 3
depth_1_delta_32 3
depth_1_delta_26 3
depth_1_delta_-18 3
depth_1_delta_17 2
depth_1_delta_-32 2
depth_1_delta_31 2
depth_1_delta_52 2
depth_1_delta_30 1
depth_2_delta_1 156342
depth_2_delta_-2 132238
depth_2_delta_-12 111506
depth_2_delta_-1 86340
depth_2_delta_2 47432
depth_2_delta_4 31
depth_2_delta_53 26
depth_2_delta_25 20
depth_2_delta_-5 15
depth_2_delta_49 14
depth_2_delta_-8 14
depth_2_delta_47 10
depth_2_delta_13 6
depth_2_delta_6 1
depth_3_delta_1 147342
depth_3_delta_-2 128944
depth_3_delta_-1 81194
depth_3_delta_-12 57458
depth_3_delta_2 44293
depth_3_delta_53 1
depth_4_delta_-2 114325
depth_4_delta_1 105106
depth_4_delta_-1 72695
depth_4_delta_-12 20692
depth_4_delta_2 19009
depth_5_delta_-2 86697
depth_5_delta_1 57705
depth_5_delta_-1 50916
depth_5_delta_2 783
depth_5_delta_-12 36
depth_6_delta_-2 37731
depth_6_delta_1 26523
depth_6_delta_-1 24407
depth_6_delta_2 64
depth_7_delta_-1 8069
depth_7_delta_-2 4874
depth_7_delta_1 4256
depth_8_delta_-1 238
depth_8_delta_-2 73
depth_8_delta_1 45

spp.pref.total 2139316
spp.pref.at_L2 275241
spp.pref.at_LLC 1864075

spp.depth.max 9
spp.depth.min 0
spp.depth.avg 1

spp.breadth.max 2
spp.breadth.min 0
spp.breadth.avg 0

delta_1 653248
delta_-2 643371
delta_-1 392756
delta_-12 335478
delta_2 158461
delta_4 2896
delta_49 678
delta_3 338
delta_25 269
delta_37 157
delta_16 110
delta_13 108
delta_-18 106
delta_-19 72
delta_29 66
delta_7 53
delta_54 47
delta_52 36
delta_53 29
delta_-28 28
delta_-17 20
delta_47 19
delta_-15 19
delta_-32 13
delta_-6 11
delta_8 6
delta_30 5
delta_-29 4
delta_32 3
delta_-16 2
delta_19 2
delta_57 2
delta_-9 1
delta_5 1
delta_-14 1
delta_11 1
delta_9 1
delta_31 1
delta_6 1

depth_1_delta_-12 199323
depth_1_delta_1 167243
depth_1_delta_-2 138563
depth_1_delta_-1 88491
depth_1_delta_2 52918
depth_1_delta_4 2889
depth_1_delta_49 595
depth_1_delta_3 330
depth_1_delta_25 204
depth_1_delta_37 156
depth_1_delta_16 109
depth_1_delta_13 107
depth_1_delta_-18 105
depth_1_delta_-19 72
depth_1_delta_29 66
depth_1_delta_7 53
depth_1_delta_54 45
depth_1_delta_52 36
depth_1_delta_-28 28
depth_1_delta_53 27
depth_1_delta_-17 20
depth_1_delta_47 19
depth_1_delta_-15 19
depth_1_delta_-32 13
depth_1_delta_-6 11
depth_1_delta_8 6
depth_1_delta_30 5
depth_1_delta_-29 4
depth_1_delta_32 3
depth_1_delta_-16 2
depth_1_delta_19 2
depth_1_delta_57 2
depth_1_delta_-9 1
depth_1_delta_5 1
depth_1_delta_-14 1
depth_1_delta_11 1
depth_1_delta_9 1
depth_1_delta_31 1
depth_1_delta_6 1
depth_2_delta_1 153800
depth_2_delta_-2 129680
depth_2_delta_-12 88071
depth_2_delta_-1 82441
depth_2_delta_2 47822
depth_2_delta_49 72
depth_2_delta_25 55
depth_2_delta_3 8
depth_2_delta_4 7
depth_2_delta_53 2
depth_2_delta_54 2
depth_2_delta_16 1
depth_2_delta_-18 1
depth_2_delta_13 1
depth_2_delta_37 1
depth_3_delta_1 145314
depth_3_delta_-2 125795
depth_3_delta_-1 76936
depth_3_delta_2 44548
depth_3_delta_-12 37850
depth_3_delta_49 11
depth_3_delta_25 10
depth_4_delta_-2 112727
depth_4_delta_1 93738
depth_4_delta_-1 67403
depth_4_delta_2 12271
depth_4_delta_-12 10216
depth_5_delta_-2 87381
depth_5_delta_1 57662
depth_5_delta_-1 45094
depth_5_delta_2 835
depth_5_delta_-12 18
depth_6_delta_-2 42394
depth_6_delta_1 29729
depth_6_delta_-1 22961
depth_6_delta_2 67
depth_7_delta_-1 9046
depth_7_delta_-2 6688
depth_7_delta_1 5684
depth_8_delta_-1 383
depth_8_delta_-2 143
depth_8_delta_1 78
depth_9_delta_-1 1

spp.pref.total 555635
spp.pref.at_L2 65368
spp.pref.at_LLC 490267

spp.depth.max 7
spp.depth.min 0
spp.depth.avg 1

spp.breadth.max 2
spp.breadth.min 0
spp.breadth.avg 0

delta_-1 295008
delta_-2 147084
delta_-12 81972
delta_1 24216
delta_-3 7612
delta_2 5026
delta_50 211
delta_37 172
delta_42 157
delta_55 68
delta_54 63
delta_-37 61
delta_51 21
delta_41 21
delta_49 19
delta_-43 16
delta_-39 13
delta_52 12
delta_38 9
delta_40 6
delta_53 5
delta_-44 5
delta_56 5
delta_-41 3
delta_36 3
delta_45 3
delta_-40 2
delta_13 2
delta_5 2
delta_-42 2
delta_-4 1
delta_-7 1
delta_12 1
delta_-16 1
delta_-36 1

depth_1_delta_-1 81835
depth_1_delta_-2 64628
depth_1_delta_-12 50917
depth_1_delta_1 13193
depth_1_delta_2 4745
depth_1_delta_-3 4062
depth_1_delta_50 175
depth_1_delta_37 172
depth_1_delta_42 157
depth_1_delta_55 64
depth_1_delta_54 63
depth_1_delta_-37 61
depth_1_delta_51 21
depth_1_delta_41 21
depth_1_delta_49 19
depth_1_delta_-43 16
depth_1_delta_-39 13
depth_1_delta_52 12
depth_1_delta_38 9
depth_1_delta_40 6
depth_1_delta_53 5
depth_1_delta_-44 5
depth_1_delta_56 5
depth_1_delta_-41 3
depth_1_delta_36 3
depth_1_delta_45 3
depth_1_delta_-40 2
depth_1_delta_13 2
depth_1_delta_5 2
depth_1_delta_-42 2
depth_1_delta_-4 1
depth_1_delta_-7 1
depth_1_delta_12 1
depth_1_delta_-16 1
depth_1_delta_-36 1
depth_2_delta_-1 83198
depth_2_delta_-2 51449
depth_2_delta_-12 20270
depth_2_delta_1 10040
depth_2_delta_-3 3538
depth_2_delta_2 268
depth_2_delta_50 36
depth_2_delta_55 4
depth_3_delta_-1 70418
depth_3_delta_-2 24335
depth_3_delta_-12 8748
depth_3_delta_1 891
depth_3_delta_2 13
depth_3_delta_-3 12
depth_4_delta_-1 35007
depth_4_delta_-2 5166
depth_4_delta_-12 2032
depth_4_delta_1 92
depth_5_delta_-1 19886
depth_5_delta_-2 1402
depth_5_delta_-12 5
depth_6_delta_-1 4632
depth_6_delta_-2 104
depth_7_delta_-1 32

spp.pref.total 584254
spp.pref.at_L2 70203
spp.pref.at_LLC 514051

spp.depth.max 7
spp.depth.min 0
spp.depth.avg 1

spp.breadth.max 2
spp.breadth.min 0
spp.breadth.avg 0

delta_-1 294649
delta_-2 162537
delta_-12 89247
delta_1 28971
delta_-3 7445
delta_2 4884
delta_12 724
delta_-20 517
delta_15 453
delta_-17 400
delta_51 351
delta_-16 349
delta_-11 308
delta_-14 297
delta_18 293
delta_-19 220
delta_-13 219
delta_50 133
delta_19 114
delta_13 89
delta_54 80
delta_6 33
delta_53 32
delta_56 26
delta_52 17
delta_-4 11
delta_57 11
delta_45 10
delta_-7 7
delta_14 5
delta_55 3
delta_-15 1
delta_49 1

depth_1_delta_-1 82653
depth_1_delta_-2 72892
depth_1_delta_-12 54973
depth_1_delta_1 15138
depth_1_delta_2 4758
depth_1_delta_-3 3931
depth_1_delta_12 718
depth_1_delta_-20 517
depth_1_delta_15 452
depth_1_delta_-17 400
depth_1_delta_-16 340
depth_1_delta_-11 308
depth_1_delta_-14 297
depth_1_delta_18 293
depth_1_delta_51 280
depth_1_delta_-19 219
depth_1_delta_-13 217
depth_1_delta_50 121
depth_1_delta_19 114
depth_1_delta_13 89
depth_1_delta_54 80
depth_1_delta_6 33
depth_1_delta_53 32
depth_1_delta_56 26
depth_1_delta_52 17
depth_1_delta_-4 11
depth_1_delta_57 11
depth_1_delta_45 10
depth_1_delta_-7 7
depth_1_delta_14 5
depth_1_delta_55 3
depth_1_delta_-15 1
depth_1_delta_49 1
depth_2_delta_-1 84251
depth_2_delta_-2 57109
depth_2_delta_-12 22860
depth_2_delta_1 12953
depth_2_delta_-3 3509
depth_2_delta_2 110
depth_2_delta_51 67
depth_2_delta_50 12
depth_2_delta_-16 9
depth_2_delta_12 6
depth_2_delta_-13 2
depth_2_delta_-19 1
depth_2_delta_15 1
depth_3_delta_-1 70765
depth_3_delta_-2 26569
depth_3_delta_-12 9470
depth_3_delta_1 790
depth_3_delta_2 16
depth_3_delta_-3 5
depth_3_delta_51 4
depth_4_delta_-1 33827
depth_4_delta_-2 4614
depth_4_delta_-12 1939
depth_4_delta_1 90
depth_5_delta_-1 18374
depth_5_delta_-2 1291
depth_5_delta_-12 5
depth_6_delta_-1 4587
depth_6_delta_-2 62
depth_7_delta_-1 192

Channel_0_RQ_row_buffer_hit 18242
Channel_0_RQ_row_buffer_miss 423663
Channel_0_WQ_row_buffer_hit 6124
Channel_0_WQ_row_buffer_miss 183325
Channel_0_WQ_full 0
Channel_0_dbus_congested 40421

Channel_1_RQ_row_buffer_hit 17740
Channel_1_RQ_row_buffer_miss 420171
Channel_1_WQ_row_buffer_hit 5887
Channel_1_WQ_row_buffer_miss 181714
Channel_1_WQ_full 0
Channel_1_dbus_congested 40395

avg_congested_cycle 8

DRAM_bw_pochs 4757157
DRAM_bw_level_0 4755528
DRAM_bw_level_1 908
DRAM_bw_level_2 688
DRAM_bw_level_3 33
