*************************************************
   ChampSim Multicore Out-of-Order Simulator
   Last compiled: Mar 31 2025 20:14:32
*************************************************
parsing config file: /data3/config/spp_ppf_dev.ini

trace_0 /data3/CLOUD9/traces/cloud9_phase2_core0.trace.xz
trace_1 /data3/CLOUD9/traces/cloud9_phase2_core1.trace.xz
trace_2 /data3/CLOUD9/traces/cloud9_phase2_core2.trace.xz
trace_3 /data3/CLOUD9/traces/cloud9_phase2_core3.trace.xz
adding L2C_PREFETCHER: SPP_PPF_dev
Initialize SIGNATURE TABLE
ST_SET: 1
ST_WAY: 256
ST_TAG_BIT: 16
ST_TAG_MASK: ffff

Initialize PATTERN TABLE
PT_SET: 2048
PT_WAY: 4
SIG_DELTA_BIT: 7
C_SIG_BIT: 4
C_DELTA_BIT: 4

Initialize PREFETCH FILTER
FILTER_SET: 1024

Initialize PERCEPTRON
PERC_ENTRIES: 4096
PERC_FEATURES: 9
Initialize SIGNATURE TABLE
ST_SET: 1
ST_WAY: 256
ST_TAG_BIT: 16
ST_TAG_MASK: ffff

Initialize PATTERN TABLE
PT_SET: 2048
PT_WAY: 4
SIG_DELTA_BIT: 7
C_SIG_BIT: 4
C_DELTA_BIT: 4

Initialize PREFETCH FILTER
FILTER_SET: 1024

Initialize PERCEPTRON
PERC_ENTRIES: 4096
PERC_FEATURES: 9
PERC_THRESH_HI: -5
PERC_THRESH_LO: -15

adding L2C_PREFETCHER: SPP_PPF_dev
Initialize SIGNATURE TABLE
ST_SET: 1
ST_WAY: 256
ST_TAG_BIT: 16
ST_TAG_MASK: ffff

Initialize PATTERN TABLE
PT_SET: 2048
PT_WAY: 4
SIG_DELTA_BIT: 7
C_SIG_BIT: 4
C_DELTA_BIT: 4

Initialize PREFETCH FILTER
FILTER_SET: 1024

Initialize PERCEPTRON
PERC_ENTRIES: 4096
PERC_FEATURES: 9
Initialize SIGNATURE TABLE
ST_SET: 1
ST_WAY: 256
ST_TAG_BIT: 16
ST_TAG_MASK: ffff

Initialize PATTERN TABLE
PT_SET: 2048
PT_WAY: 4
SIG_DELTA_BIT: 7
C_SIG_BIT: 4
C_DELTA_BIT: 4

Initialize PREFETCH FILTER
FILTER_SET: 1024

Initialize PERCEPTRON
PERC_ENTRIES: 4096
PERC_FEATURES: 9
PERC_THRESH_HI: -5
PERC_THRESH_LO: -15

adding L2C_PREFETCHER: SPP_PPF_dev
Initialize SIGNATURE TABLE
ST_SET: 1
ST_WAY: 256
ST_TAG_BIT: 16
ST_TAG_MASK: ffff

Initialize PATTERN TABLE
PT_SET: 2048
PT_WAY: 4
SIG_DELTA_BIT: 7
C_SIG_BIT: 4
C_DELTA_BIT: 4

Initialize PREFETCH FILTER
FILTER_SET: 1024

Initialize PERCEPTRON
PERC_ENTRIES: 4096
PERC_FEATURES: 9
Initialize SIGNATURE TABLE
ST_SET: 1
ST_WAY: 256
ST_TAG_BIT: 16
ST_TAG_MASK: ffff

Initialize PATTERN TABLE
PT_SET: 2048
PT_WAY: 4
SIG_DELTA_BIT: 7
C_SIG_BIT: 4
C_DELTA_BIT: 4

Initialize PREFETCH FILTER
FILTER_SET: 1024

Initialize PERCEPTRON
PERC_ENTRIES: 4096
PERC_FEATURES: 9
PERC_THRESH_HI: -5
PERC_THRESH_LO: -15

adding L2C_PREFETCHER: SPP_PPF_dev
Initialize SIGNATURE TABLE
ST_SET: 1
ST_WAY: 256
ST_TAG_BIT: 16
ST_TAG_MASK: ffff

Initialize PATTERN TABLE
PT_SET: 2048
PT_WAY: 4
SIG_DELTA_BIT: 7
C_SIG_BIT: 4
C_DELTA_BIT: 4

Initialize PREFETCH FILTER
FILTER_SET: 1024

Initialize PERCEPTRON
PERC_ENTRIES: 4096
PERC_FEATURES: 9
Initialize SIGNATURE TABLE
ST_SET: 1
ST_WAY: 256
ST_TAG_BIT: 16
ST_TAG_MASK: ffff

Initialize PATTERN TABLE
PT_SET: 2048
PT_WAY: 4
SIG_DELTA_BIT: 7
C_SIG_BIT: 4
C_DELTA_BIT: 4

Initialize PREFETCH FILTER
FILTER_SET: 1024

Initialize PERCEPTRON
PERC_ENTRIES: 4096
PERC_FEATURES: 9
PERC_THRESH_HI: -5
PERC_THRESH_LO: -15

Initialize SHIP state
warmup_instructions 50000000
simulation_instructions 150000000
champsim_seed 7342
measure_ipc 0
measure_ipc_epoch 1000
measure_dram_bw 1
measure_dram_bw_epoch 256
measure_cache_acc 1
measure_cache_acc_epoch 1024
l1d_perfect 0
l2c_perfect 0
llc_perfect 0
l1d_semi_perfect 0
l2c_semi_perfect 0
llc_semi_perfect 0
semi_perfect_cache_page_buffer_size 64

num_cpus 4
cpu_freq 4000
dram_io_freq 2400
page_size 4096
block_size 64
max_read_per_cycle 8
max_fill_per_cycle 1
dram_channels 2
log2_dram_channels 1
dram_ranks 1
dram_banks 8
dram_rows 65536
dram_columns 128
dram_row_size 8
dram_size 8192
dram_pages 2097152

fetch_width 6
decode_width 6
exec_width 4
lq_width 2
sq_width 2
retire_width 4
scheduler_size 128
branch_mispredict_penalty 20
rob_size 256
lq_size 72
sq_size 56
num_instr_destinations_sparc 4
num_instr_destinations 2
num_instr_sources 4

itlb_set 16
itlb_way 8
itlb_rq_size 16
itlb_wq_size 16
itlb_pq_size 0
itlb_mshr_size 8
itlb_latency 1

dtlb_set 16
dtlb_way 4
dtlb_rq_size 16
dtlb_wq_size 16
dtlb_pq_size 0
dtlb_mshr_size 8
dtlb_latency 1

stlb_set 128
stlb_way 12
stlb_rq_size 32
stlb_wq_size 32
stlb_pq_size 0
stlb_mshr_size 16
stlb_latency 8

l1i_size 32
l1i_set 64
l1i_way 8
l1i_rq_size 64
l1i_wq_size 64
l1i_pq_size 8
l1i_mshr_size 8
l1i_latency 1

l1d_size 32
l1d_set 64
l1d_way 8
l1d_rq_size 64
l1d_wq_size 64
l1d_pq_size 8
l1d_mshr_size 16
l1d_latency 4

l2c_size 256
l2c_set 512
l2c_way 8
l2c_rq_size 32
l2c_wq_size 32
l2c_pq_size 32
l2c_mshr_size 32
l2c_latency 10

llc_size 8192
llc_set 8192
llc_way 16
llc_rq_size 128
llc_wq_size 128
llc_pq_size 128
llc_mshr_size 256
llc_latency 20

dram_channel_width 8
dram_wq_size 64
dram_rq_size 64
tRP 15
tRCD 15
tCAS 12.5
dram_dbus_turn_around_time 30
dram_write_high_wm 56
dram_write_low_wm 48
min_dram_writes_per_switch 16
dram_mtps 2400
dram_dbus_return_time 13


Heartbeat CPU  3 instructions:    1000002 cycles:     391135 heartbeat IPC: 2.55667 cumulative IPC: 2.55667 (Simulation time: 0 hr 0 min 6 sec) 
Heartbeat CPU  1 instructions:    1000002 cycles:     424362 heartbeat IPC: 2.35648 cumulative IPC: 2.35648 (Simulation time: 0 hr 0 min 6 sec) 
Heartbeat CPU  2 instructions:    1000001 cycles:     441476 heartbeat IPC: 2.26513 cumulative IPC: 2.26513 (Simulation time: 0 hr 0 min 7 sec) 
Heartbeat CPU  0 instructions:    1000002 cycles:     447530 heartbeat IPC: 2.23449 cumulative IPC: 2.23449 (Simulation time: 0 hr 0 min 7 sec) 
Heartbeat CPU  3 instructions:    2000003 cycles:     791661 heartbeat IPC: 2.49672 cumulative IPC: 2.52634 (Simulation time: 0 hr 0 min 12 sec) 
Heartbeat CPU  1 instructions:    2000000 cycles:     814490 heartbeat IPC: 2.56326 cumulative IPC: 2.45552 (Simulation time: 0 hr 0 min 12 sec) 
Heartbeat CPU  2 instructions:    2000000 cycles:     900104 heartbeat IPC: 2.18041 cumulative IPC: 2.22197 (Simulation time: 0 hr 0 min 14 sec) 
Heartbeat CPU  0 instructions:    2000000 cycles:     909352 heartbeat IPC: 2.16533 cumulative IPC: 2.19937 (Simulation time: 0 hr 0 min 14 sec) 
Heartbeat CPU  3 instructions:    3000000 cycles:    1179455 heartbeat IPC: 2.57868 cumulative IPC: 2.54355 (Simulation time: 0 hr 0 min 18 sec) 
Heartbeat CPU  1 instructions:    3000003 cycles:    1200034 heartbeat IPC: 2.59375 cumulative IPC: 2.49993 (Simulation time: 0 hr 0 min 19 sec) 
Heartbeat CPU  2 instructions:    3000003 cycles:    1323207 heartbeat IPC: 2.36350 cumulative IPC: 2.26722 (Simulation time: 0 hr 0 min 21 sec) 
Heartbeat CPU  0 instructions:    3000000 cycles:    1347254 heartbeat IPC: 2.28362 cumulative IPC: 2.22675 (Simulation time: 0 hr 0 min 21 sec) 
Heartbeat CPU  3 instructions:    4000000 cycles:    1568920 heartbeat IPC: 2.56762 cumulative IPC: 2.54952 (Simulation time: 0 hr 0 min 25 sec) 
Heartbeat CPU  1 instructions:    4000000 cycles:    1582012 heartbeat IPC: 2.61794 cumulative IPC: 2.52843 (Simulation time: 0 hr 0 min 25 sec) 
Heartbeat CPU  2 instructions:    4000000 cycles:    1794412 heartbeat IPC: 2.12221 cumulative IPC: 2.22914 (Simulation time: 0 hr 0 min 28 sec) 
Heartbeat CPU  0 instructions:    4000000 cycles:    1843826 heartbeat IPC: 2.01381 cumulative IPC: 2.16940 (Simulation time: 0 hr 0 min 29 sec) 
Heartbeat CPU  3 instructions:    5000000 cycles:    1959500 heartbeat IPC: 2.56029 cumulative IPC: 2.55167 (Simulation time: 0 hr 0 min 30 sec) 
Heartbeat CPU  1 instructions:    5000001 cycles:    1966801 heartbeat IPC: 2.59883 cumulative IPC: 2.54220 (Simulation time: 0 hr 0 min 31 sec) 
Heartbeat CPU  2 instructions:    5000001 cycles:    2242457 heartbeat IPC: 2.23192 cumulative IPC: 2.22970 (Simulation time: 0 hr 0 min 35 sec) 
Heartbeat CPU  0 instructions:    5000001 cycles:    2276664 heartbeat IPC: 2.31034 cumulative IPC: 2.19620 (Simulation time: 0 hr 0 min 36 sec) 
Heartbeat CPU  3 instructions:    6000003 cycles:    2349319 heartbeat IPC: 2.56530 cumulative IPC: 2.55393 (Simulation time: 0 hr 0 min 37 sec) 
Heartbeat CPU  1 instructions:    6000000 cycles:    2350222 heartbeat IPC: 2.60810 cumulative IPC: 2.55295 (Simulation time: 0 hr 0 min 37 sec) 
Heartbeat CPU  2 instructions:    6000000 cycles:    2661550 heartbeat IPC: 2.38610 cumulative IPC: 2.25433 (Simulation time: 0 hr 0 min 42 sec) 
Heartbeat CPU  0 instructions:    6000002 cycles:    2709281 heartbeat IPC: 2.31152 cumulative IPC: 2.21461 (Simulation time: 0 hr 0 min 43 sec) 
Heartbeat CPU  1 instructions:    7000001 cycles:    2734413 heartbeat IPC: 2.60287 cumulative IPC: 2.55996 (Simulation time: 0 hr 0 min 43 sec) 
Heartbeat CPU  3 instructions:    7000002 cycles:    2741044 heartbeat IPC: 2.55281 cumulative IPC: 2.55377 (Simulation time: 0 hr 0 min 43 sec) 
Heartbeat CPU  2 instructions:    7000003 cycles:    3099971 heartbeat IPC: 2.28092 cumulative IPC: 2.25809 (Simulation time: 0 hr 0 min 49 sec) 
Heartbeat CPU  1 instructions:    8000000 cycles:    3114915 heartbeat IPC: 2.62810 cumulative IPC: 2.56829 (Simulation time: 0 hr 0 min 49 sec) 
Heartbeat CPU  3 instructions:    8000000 cycles:    3130966 heartbeat IPC: 2.56461 cumulative IPC: 2.55512 (Simulation time: 0 hr 0 min 50 sec) 
Heartbeat CPU  0 instructions:    7000003 cycles:    3149301 heartbeat IPC: 2.27263 cumulative IPC: 2.22272 (Simulation time: 0 hr 0 min 50 sec) 
Heartbeat CPU  1 instructions:    9000003 cycles:    3498558 heartbeat IPC: 2.60660 cumulative IPC: 2.57249 (Simulation time: 0 hr 0 min 55 sec) 
Heartbeat CPU  2 instructions:    8000000 cycles:    3520185 heartbeat IPC: 2.37973 cumulative IPC: 2.27261 (Simulation time: 0 hr 0 min 56 sec) 
Heartbeat CPU  3 instructions:    9000003 cycles:    3520338 heartbeat IPC: 2.56825 cumulative IPC: 2.55657 (Simulation time: 0 hr 0 min 56 sec) 
Heartbeat CPU  0 instructions:    8000000 cycles:    3587127 heartbeat IPC: 2.28401 cumulative IPC: 2.23020 (Simulation time: 0 hr 0 min 57 sec) 
Heartbeat CPU  1 instructions:   10000002 cycles:    3887647 heartbeat IPC: 2.57010 cumulative IPC: 2.57225 (Simulation time: 0 hr 1 min 1 sec) 
Heartbeat CPU  3 instructions:   10000001 cycles:    3909358 heartbeat IPC: 2.57056 cumulative IPC: 2.55797 (Simulation time: 0 hr 1 min 2 sec) 
Heartbeat CPU  2 instructions:    9000001 cycles:    4097524 heartbeat IPC: 1.73209 cumulative IPC: 2.19645 (Simulation time: 0 hr 1 min 4 sec) 
Heartbeat CPU  0 instructions:    9000001 cycles:    4193211 heartbeat IPC: 1.64994 cumulative IPC: 2.14633 (Simulation time: 0 hr 1 min 6 sec) 
Heartbeat CPU  1 instructions:   11000002 cycles:    4270402 heartbeat IPC: 2.61264 cumulative IPC: 2.57587 (Simulation time: 0 hr 1 min 7 sec) 
Heartbeat CPU  3 instructions:   11000000 cycles:    4298399 heartbeat IPC: 2.57042 cumulative IPC: 2.55909 (Simulation time: 0 hr 1 min 7 sec) 
Heartbeat CPU  2 instructions:   10000001 cycles:    4530322 heartbeat IPC: 2.31055 cumulative IPC: 2.20735 (Simulation time: 0 hr 1 min 11 sec) 
Heartbeat CPU  0 instructions:   10000002 cycles:    4630813 heartbeat IPC: 2.28518 cumulative IPC: 2.15945 (Simulation time: 0 hr 1 min 13 sec) 
Heartbeat CPU  1 instructions:   12000000 cycles:    4653706 heartbeat IPC: 2.60889 cumulative IPC: 2.57859 (Simulation time: 0 hr 1 min 13 sec) 
Heartbeat CPU  3 instructions:   12000000 cycles:    4687624 heartbeat IPC: 2.56921 cumulative IPC: 2.55993 (Simulation time: 0 hr 1 min 14 sec) 
Heartbeat CPU  2 instructions:   11000000 cycles:    4961741 heartbeat IPC: 2.31793 cumulative IPC: 2.21696 (Simulation time: 0 hr 1 min 18 sec) 
Heartbeat CPU  1 instructions:   13000000 cycles:    5035593 heartbeat IPC: 2.61858 cumulative IPC: 2.58162 (Simulation time: 0 hr 1 min 19 sec) 
Heartbeat CPU  0 instructions:   11000002 cycles:    5069302 heartbeat IPC: 2.28056 cumulative IPC: 2.16992 (Simulation time: 0 hr 1 min 20 sec) 
Heartbeat CPU  3 instructions:   13000000 cycles:    5078568 heartbeat IPC: 2.55791 cumulative IPC: 2.55978 (Simulation time: 0 hr 1 min 20 sec) 
Heartbeat CPU  2 instructions:   12000000 cycles:    5395898 heartbeat IPC: 2.30331 cumulative IPC: 2.22391 (Simulation time: 0 hr 1 min 25 sec) 
Heartbeat CPU  1 instructions:   14000003 cycles:    5417020 heartbeat IPC: 2.62174 cumulative IPC: 2.58445 (Simulation time: 0 hr 1 min 25 sec) 
Heartbeat CPU  3 instructions:   14000001 cycles:    5468959 heartbeat IPC: 2.56154 cumulative IPC: 2.55990 (Simulation time: 0 hr 1 min 26 sec) 
Heartbeat CPU  0 instructions:   12000000 cycles:    5507062 heartbeat IPC: 2.28435 cumulative IPC: 2.17902 (Simulation time: 0 hr 1 min 27 sec) 
Heartbeat CPU  1 instructions:   15000000 cycles:    5797999 heartbeat IPC: 2.62481 cumulative IPC: 2.58710 (Simulation time: 0 hr 1 min 31 sec) 
Heartbeat CPU  2 instructions:   13000003 cycles:    5855837 heartbeat IPC: 2.17421 cumulative IPC: 2.22001 (Simulation time: 0 hr 1 min 32 sec) 
Heartbeat CPU  3 instructions:   15000001 cycles:    5863211 heartbeat IPC: 2.53645 cumulative IPC: 2.55833 (Simulation time: 0 hr 1 min 32 sec) 
Heartbeat CPU  0 instructions:   13000001 cycles:    5971119 heartbeat IPC: 2.15491 cumulative IPC: 2.17715 (Simulation time: 0 hr 1 min 34 sec) 
Heartbeat CPU  1 instructions:   16000000 cycles:    6179292 heartbeat IPC: 2.62265 cumulative IPC: 2.58929 (Simulation time: 0 hr 1 min 37 sec) 
Heartbeat CPU  3 instructions:   16000000 cycles:    6257091 heartbeat IPC: 2.53884 cumulative IPC: 2.55710 (Simulation time: 0 hr 1 min 38 sec) 
Heartbeat CPU  2 instructions:   14000000 cycles:    6347953 heartbeat IPC: 2.03204 cumulative IPC: 2.20544 (Simulation time: 0 hr 1 min 39 sec) 
Heartbeat CPU  0 instructions:   14000002 cycles:    6443666 heartbeat IPC: 2.11619 cumulative IPC: 2.17268 (Simulation time: 0 hr 1 min 41 sec) 
Heartbeat CPU  1 instructions:   17000001 cycles:    6559700 heartbeat IPC: 2.62876 cumulative IPC: 2.59158 (Simulation time: 0 hr 1 min 42 sec) 
Heartbeat CPU  3 instructions:   17000001 cycles:    6653198 heartbeat IPC: 2.52457 cumulative IPC: 2.55516 (Simulation time: 0 hr 1 min 44 sec) 
Heartbeat CPU  2 instructions:   15000001 cycles:    6779165 heartbeat IPC: 2.31905 cumulative IPC: 2.21266 (Simulation time: 0 hr 1 min 46 sec) 
Heartbeat CPU  0 instructions:   15000002 cycles:    6893328 heartbeat IPC: 2.22389 cumulative IPC: 2.17602 (Simulation time: 0 hr 1 min 48 sec) 
Heartbeat CPU  1 instructions:   18000002 cycles:    6941652 heartbeat IPC: 2.61813 cumulative IPC: 2.59304 (Simulation time: 0 hr 1 min 48 sec) 
Heartbeat CPU  3 instructions:   18000000 cycles:    7047060 heartbeat IPC: 2.53896 cumulative IPC: 2.55426 (Simulation time: 0 hr 1 min 50 sec) 
Heartbeat CPU  2 instructions:   16000000 cycles:    7217316 heartbeat IPC: 2.28232 cumulative IPC: 2.21689 (Simulation time: 0 hr 1 min 53 sec) 
Heartbeat CPU  1 instructions:   19000002 cycles:    7326862 heartbeat IPC: 2.59599 cumulative IPC: 2.59320 (Simulation time: 0 hr 1 min 55 sec) 
Heartbeat CPU  0 instructions:   16000000 cycles:    7331655 heartbeat IPC: 2.28140 cumulative IPC: 2.18232 (Simulation time: 0 hr 1 min 55 sec) 
Heartbeat CPU  3 instructions:   19000001 cycles:    7441886 heartbeat IPC: 2.53276 cumulative IPC: 2.55312 (Simulation time: 0 hr 1 min 56 sec) 
Heartbeat CPU  2 instructions:   17000000 cycles:    7670131 heartbeat IPC: 2.20841 cumulative IPC: 2.21639 (Simulation time: 0 hr 2 min 0 sec) 
Heartbeat CPU  1 instructions:   20000000 cycles:    7711703 heartbeat IPC: 2.59847 cumulative IPC: 2.59346 (Simulation time: 0 hr 2 min 1 sec) 
Heartbeat CPU  0 instructions:   17000002 cycles:    7791742 heartbeat IPC: 2.17351 cumulative IPC: 2.18180 (Simulation time: 0 hr 2 min 2 sec) 
Heartbeat CPU  3 instructions:   20000000 cycles:    7835663 heartbeat IPC: 2.53951 cumulative IPC: 2.55243 (Simulation time: 0 hr 2 min 3 sec) 
Heartbeat CPU  1 instructions:   21000001 cycles:    8092653 heartbeat IPC: 2.62502 cumulative IPC: 2.59495 (Simulation time: 0 hr 2 min 7 sec) 
Heartbeat CPU  2 instructions:   18000001 cycles:    8098382 heartbeat IPC: 2.33508 cumulative IPC: 2.22267 (Simulation time: 0 hr 2 min 7 sec) 
Heartbeat CPU  0 instructions:   18000001 cycles:    8229666 heartbeat IPC: 2.28350 cumulative IPC: 2.18721 (Simulation time: 0 hr 2 min 9 sec) 
Heartbeat CPU  3 instructions:   21000003 cycles:    8229741 heartbeat IPC: 2.53758 cumulative IPC: 2.55172 (Simulation time: 0 hr 2 min 9 sec) 
Heartbeat CPU  1 instructions:   22000002 cycles:    8472853 heartbeat IPC: 2.63020 cumulative IPC: 2.59653 (Simulation time: 0 hr 2 min 13 sec) 
Heartbeat CPU  2 instructions:   19000002 cycles:    8586167 heartbeat IPC: 2.05009 cumulative IPC: 2.21286 (Simulation time: 0 hr 2 min 14 sec) 
Heartbeat CPU  3 instructions:   22000000 cycles:    8623974 heartbeat IPC: 2.53656 cumulative IPC: 2.55103 (Simulation time: 0 hr 2 min 15 sec) 
Heartbeat CPU  0 instructions:   19000001 cycles:    8728531 heartbeat IPC: 2.00455 cumulative IPC: 2.17677 (Simulation time: 0 hr 2 min 17 sec) 
Heartbeat CPU  1 instructions:   23000001 cycles:    8854211 heartbeat IPC: 2.62221 cumulative IPC: 2.59763 (Simulation time: 0 hr 2 min 19 sec) 
Heartbeat CPU  2 instructions:   20000000 cycles:    9007202 heartbeat IPC: 2.37509 cumulative IPC: 2.22045 (Simulation time: 0 hr 2 min 21 sec) 
Heartbeat CPU  3 instructions:   23000001 cycles:    9016732 heartbeat IPC: 2.54610 cumulative IPC: 2.55081 (Simulation time: 0 hr 2 min 21 sec) 
Heartbeat CPU  0 instructions:   20000000 cycles:    9154583 heartbeat IPC: 2.34713 cumulative IPC: 2.18470 (Simulation time: 0 hr 2 min 24 sec) 
Heartbeat CPU  1 instructions:   24000000 cycles:    9235263 heartbeat IPC: 2.62431 cumulative IPC: 2.59873 (Simulation time: 0 hr 2 min 25 sec) 
Heartbeat CPU  3 instructions:   24000000 cycles:    9411333 heartbeat IPC: 2.53420 cumulative IPC: 2.55012 (Simulation time: 0 hr 2 min 28 sec) 
Heartbeat CPU  2 instructions:   21000001 cycles:    9431544 heartbeat IPC: 2.35659 cumulative IPC: 2.22657 (Simulation time: 0 hr 2 min 28 sec) 
Heartbeat CPU  0 instructions:   21000002 cycles:    9594091 heartbeat IPC: 2.27528 cumulative IPC: 2.18885 (Simulation time: 0 hr 2 min 31 sec) 
Heartbeat CPU  1 instructions:   25000000 cycles:    9616419 heartbeat IPC: 2.62360 cumulative IPC: 2.59972 (Simulation time: 0 hr 2 min 31 sec) 
Heartbeat CPU  3 instructions:   25000003 cycles:    9805948 heartbeat IPC: 2.53412 cumulative IPC: 2.54947 (Simulation time: 0 hr 2 min 34 sec) 
Heartbeat CPU  2 instructions:   22000001 cycles:    9856422 heartbeat IPC: 2.35362 cumulative IPC: 2.23205 (Simulation time: 0 hr 2 min 35 sec) 
Heartbeat CPU  0 instructions:   22000000 cycles:   10026825 heartbeat IPC: 2.31088 cumulative IPC: 2.19411 (Simulation time: 0 hr 2 min 38 sec) 
Heartbeat CPU  1 instructions:   26000003 cycles:   10179947 heartbeat IPC: 1.77454 cumulative IPC: 2.55404 (Simulation time: 0 hr 2 min 40 sec) 
Heartbeat CPU  3 instructions:   26000003 cycles:   10201458 heartbeat IPC: 2.52838 cumulative IPC: 2.54866 (Simulation time: 0 hr 2 min 40 sec) 
Heartbeat CPU  2 instructions:   23000003 cycles:   10277287 heartbeat IPC: 2.37606 cumulative IPC: 2.23795 (Simulation time: 0 hr 2 min 41 sec) 
Heartbeat CPU  0 instructions:   23000003 cycles:   10464565 heartbeat IPC: 2.28447 cumulative IPC: 2.19789 (Simulation time: 0 hr 2 min 44 sec) 
Heartbeat CPU  1 instructions:   27000001 cycles:   10563148 heartbeat IPC: 2.60959 cumulative IPC: 2.55606 (Simulation time: 0 hr 2 min 45 sec) 
Heartbeat CPU  3 instructions:   27000002 cycles:   10597803 heartbeat IPC: 2.52305 cumulative IPC: 2.54770 (Simulation time: 0 hr 2 min 46 sec) 
Heartbeat CPU  2 instructions:   24000000 cycles:   10854502 heartbeat IPC: 1.73245 cumulative IPC: 2.21106 (Simulation time: 0 hr 2 min 49 sec) 
Heartbeat CPU  1 instructions:   28000000 cycles:   10944784 heartbeat IPC: 2.62030 cumulative IPC: 2.55830 (Simulation time: 0 hr 2 min 51 sec) 
Heartbeat CPU  3 instructions:   28000000 cycles:   10988065 heartbeat IPC: 2.56238 cumulative IPC: 2.54822 (Simulation time: 0 hr 2 min 52 sec) 
Heartbeat CPU  0 instructions:   24000000 cycles:   11071901 heartbeat IPC: 1.64653 cumulative IPC: 2.16765 (Simulation time: 0 hr 2 min 53 sec) 
Heartbeat CPU  2 instructions:   25000001 cycles:   11287414 heartbeat IPC: 2.30994 cumulative IPC: 2.21486 (Simulation time: 0 hr 2 min 56 sec) 
Heartbeat CPU  1 instructions:   29000002 cycles:   11325243 heartbeat IPC: 2.62841 cumulative IPC: 2.56065 (Simulation time: 0 hr 2 min 57 sec) 
Heartbeat CPU  3 instructions:   29000002 cycles:   11381647 heartbeat IPC: 2.54077 cumulative IPC: 2.54796 (Simulation time: 0 hr 2 min 58 sec) 
Heartbeat CPU  0 instructions:   25000000 cycles:   11511689 heartbeat IPC: 2.27382 cumulative IPC: 2.17171 (Simulation time: 0 hr 3 min 0 sec) 
Heartbeat CPU  1 instructions:   30000003 cycles:   11707947 heartbeat IPC: 2.61299 cumulative IPC: 2.56236 (Simulation time: 0 hr 3 min 3 sec) 
Heartbeat CPU  2 instructions:   26000000 cycles:   11716948 heartbeat IPC: 2.32810 cumulative IPC: 2.21901 (Simulation time: 0 hr 3 min 3 sec) 
Heartbeat CPU  3 instructions:   30000001 cycles:   11776741 heartbeat IPC: 2.53104 cumulative IPC: 2.54739 (Simulation time: 0 hr 3 min 4 sec) 
Heartbeat CPU  0 instructions:   26000003 cycles:   11944835 heartbeat IPC: 2.30870 cumulative IPC: 2.17667 (Simulation time: 0 hr 3 min 7 sec) 
Heartbeat CPU  1 instructions:   31000003 cycles:   12090395 heartbeat IPC: 2.61473 cumulative IPC: 2.56402 (Simulation time: 0 hr 3 min 9 sec) 
Heartbeat CPU  2 instructions:   27000000 cycles:   12160232 heartbeat IPC: 2.25589 cumulative IPC: 2.22035 (Simulation time: 0 hr 3 min 10 sec) 
Heartbeat CPU  3 instructions:   31000000 cycles:   12172030 heartbeat IPC: 2.52979 cumulative IPC: 2.54682 (Simulation time: 0 hr 3 min 11 sec) 
Heartbeat CPU  0 instructions:   27000000 cycles:   12422891 heartbeat IPC: 2.09180 cumulative IPC: 2.17341 (Simulation time: 0 hr 3 min 14 sec) 
Heartbeat CPU  1 instructions:   32000000 cycles:   12471689 heartbeat IPC: 2.62264 cumulative IPC: 2.56581 (Simulation time: 0 hr 3 min 15 sec) 
Heartbeat CPU  3 instructions:   32000000 cycles:   12568068 heartbeat IPC: 2.52501 cumulative IPC: 2.54614 (Simulation time: 0 hr 3 min 16 sec) 
Heartbeat CPU  2 instructions:   28000000 cycles:   12624236 heartbeat IPC: 2.15515 cumulative IPC: 2.21796 (Simulation time: 0 hr 3 min 17 sec) 
Heartbeat CPU  1 instructions:   33000003 cycles:   12852455 heartbeat IPC: 2.62629 cumulative IPC: 2.56760 (Simulation time: 0 hr 3 min 21 sec) 
Heartbeat CPU  0 instructions:   28000000 cycles:   12887531 heartbeat IPC: 2.15220 cumulative IPC: 2.17264 (Simulation time: 0 hr 3 min 21 sec) 
Heartbeat CPU  3 instructions:   33000000 cycles:   12963165 heartbeat IPC: 2.53102 cumulative IPC: 2.54567 (Simulation time: 0 hr 3 min 22 sec) 
Heartbeat CPU  2 instructions:   29000003 cycles:   13070890 heartbeat IPC: 2.23888 cumulative IPC: 2.21867 (Simulation time: 0 hr 3 min 24 sec) 
Heartbeat CPU  1 instructions:   34000002 cycles:   13235167 heartbeat IPC: 2.61293 cumulative IPC: 2.56891 (Simulation time: 0 hr 3 min 26 sec) 
Heartbeat CPU  0 instructions:   29000002 cycles:   13322513 heartbeat IPC: 2.29895 cumulative IPC: 2.17677 (Simulation time: 0 hr 3 min 28 sec) 
Heartbeat CPU  3 instructions:   34000002 cycles:   13358191 heartbeat IPC: 2.53148 cumulative IPC: 2.54525 (Simulation time: 0 hr 3 min 28 sec) 
Heartbeat CPU  2 instructions:   30000000 cycles:   13512476 heartbeat IPC: 2.26456 cumulative IPC: 2.22017 (Simulation time: 0 hr 3 min 31 sec) 
Heartbeat CPU  1 instructions:   35000002 cycles:   13617101 heartbeat IPC: 2.61825 cumulative IPC: 2.57030 (Simulation time: 0 hr 3 min 33 sec) 
Heartbeat CPU  3 instructions:   35000000 cycles:   13752815 heartbeat IPC: 2.53405 cumulative IPC: 2.54493 (Simulation time: 0 hr 3 min 35 sec) 
Heartbeat CPU  0 instructions:   30000001 cycles:   13768425 heartbeat IPC: 2.24259 cumulative IPC: 2.17890 (Simulation time: 0 hr 3 min 35 sec) 
Heartbeat CPU  2 instructions:   31000001 cycles:   13939006 heartbeat IPC: 2.34450 cumulative IPC: 2.22397 (Simulation time: 0 hr 3 min 38 sec) 
Heartbeat CPU  1 instructions:   36000000 cycles:   14000385 heartbeat IPC: 2.60903 cumulative IPC: 2.57136 (Simulation time: 0 hr 3 min 39 sec) 
Heartbeat CPU  3 instructions:   36000000 cycles:   14147640 heartbeat IPC: 2.53277 cumulative IPC: 2.54459 (Simulation time: 0 hr 3 min 41 sec) 
Heartbeat CPU  0 instructions:   31000003 cycles:   14234108 heartbeat IPC: 2.14739 cumulative IPC: 2.17787 (Simulation time: 0 hr 3 min 42 sec) 
Heartbeat CPU  2 instructions:   32000000 cycles:   14391795 heartbeat IPC: 2.20853 cumulative IPC: 2.22349 (Simulation time: 0 hr 3 min 45 sec) 
Heartbeat CPU  1 instructions:   37000000 cycles:   14426334 heartbeat IPC: 2.34770 cumulative IPC: 2.56475 (Simulation time: 0 hr 3 min 45 sec) 
Heartbeat CPU  3 instructions:   37000001 cycles:   14542332 heartbeat IPC: 2.53362 cumulative IPC: 2.54430 (Simulation time: 0 hr 3 min 47 sec) 
Heartbeat CPU  0 instructions:   32000000 cycles:   14668652 heartbeat IPC: 2.30126 cumulative IPC: 2.18152 (Simulation time: 0 hr 3 min 49 sec) 
Heartbeat CPU  2 instructions:   33000000 cycles:   14814187 heartbeat IPC: 2.36747 cumulative IPC: 2.22759 (Simulation time: 0 hr 3 min 51 sec) 
Heartbeat CPU  1 instructions:   38000000 cycles:   14881844 heartbeat IPC: 2.19534 cumulative IPC: 2.55345 (Simulation time: 0 hr 3 min 52 sec) 
Heartbeat CPU  3 instructions:   38000001 cycles:   14937355 heartbeat IPC: 2.53150 cumulative IPC: 2.54396 (Simulation time: 0 hr 3 min 53 sec) 
Heartbeat CPU  0 instructions:   33000000 cycles:   15103643 heartbeat IPC: 2.29890 cumulative IPC: 2.18490 (Simulation time: 0 hr 3 min 56 sec) 
Heartbeat CPU  2 instructions:   34000001 cycles:   15304706 heartbeat IPC: 2.03866 cumulative IPC: 2.22154 (Simulation time: 0 hr 3 min 59 sec) 
Heartbeat CPU  3 instructions:   39000001 cycles:   15331598 heartbeat IPC: 2.53651 cumulative IPC: 2.54377 (Simulation time: 0 hr 3 min 59 sec) 
Heartbeat CPU  1 instructions:   39000001 cycles:   15337319 heartbeat IPC: 2.19551 cumulative IPC: 2.54282 (Simulation time: 0 hr 3 min 59 sec) 
Heartbeat CPU  0 instructions:   34000003 cycles:   15598878 heartbeat IPC: 2.01925 cumulative IPC: 2.17964 (Simulation time: 0 hr 4 min 3 sec) 
Heartbeat CPU  3 instructions:   40000000 cycles:   15719544 heartbeat IPC: 2.57768 cumulative IPC: 2.54460 (Simulation time: 0 hr 4 min 5 sec) 
Heartbeat CPU  2 instructions:   35000002 cycles:   15727858 heartbeat IPC: 2.36322 cumulative IPC: 2.22535 (Simulation time: 0 hr 4 min 5 sec) 
Heartbeat CPU  1 instructions:   40000000 cycles:   15788561 heartbeat IPC: 2.21610 cumulative IPC: 2.53348 (Simulation time: 0 hr 4 min 6 sec) 
Heartbeat CPU  0 instructions:   35000003 cycles:   16029649 heartbeat IPC: 2.32142 cumulative IPC: 2.18345 (Simulation time: 0 hr 4 min 10 sec) 
Heartbeat CPU  3 instructions:   41000002 cycles:   16113908 heartbeat IPC: 2.53573 cumulative IPC: 2.54439 (Simulation time: 0 hr 4 min 11 sec) 
Heartbeat CPU  2 instructions:   36000000 cycles:   16152472 heartbeat IPC: 2.35508 cumulative IPC: 2.22876 (Simulation time: 0 hr 4 min 12 sec) 
Heartbeat CPU  1 instructions:   41000002 cycles:   16246049 heartbeat IPC: 2.18585 cumulative IPC: 2.52369 (Simulation time: 0 hr 4 min 14 sec) 
Heartbeat CPU  0 instructions:   36000000 cycles:   16467165 heartbeat IPC: 2.28562 cumulative IPC: 2.18617 (Simulation time: 0 hr 4 min 17 sec) 
Heartbeat CPU  3 instructions:   42000002 cycles:   16507557 heartbeat IPC: 2.54033 cumulative IPC: 2.54429 (Simulation time: 0 hr 4 min 18 sec) 
Heartbeat CPU  2 instructions:   37000000 cycles:   16574103 heartbeat IPC: 2.37174 cumulative IPC: 2.23240 (Simulation time: 0 hr 4 min 19 sec) 
Heartbeat CPU  1 instructions:   42000000 cycles:   16665248 heartbeat IPC: 2.38550 cumulative IPC: 2.52021 (Simulation time: 0 hr 4 min 20 sec) 
Heartbeat CPU  0 instructions:   37000001 cycles:   16901583 heartbeat IPC: 2.30193 cumulative IPC: 2.18914 (Simulation time: 0 hr 4 min 24 sec) 
Heartbeat CPU  3 instructions:   43000002 cycles:   16902697 heartbeat IPC: 2.53075 cumulative IPC: 2.54397 (Simulation time: 0 hr 4 min 24 sec) 
Heartbeat CPU  2 instructions:   38000001 cycles:   16996598 heartbeat IPC: 2.36689 cumulative IPC: 2.23574 (Simulation time: 0 hr 4 min 25 sec) 
Heartbeat CPU  1 instructions:   43000001 cycles:   17085258 heartbeat IPC: 2.38090 cumulative IPC: 2.51679 (Simulation time: 0 hr 4 min 27 sec) 
Heartbeat CPU  3 instructions:   44000000 cycles:   17297411 heartbeat IPC: 2.53347 cumulative IPC: 2.54373 (Simulation time: 0 hr 4 min 30 sec) 
Heartbeat CPU  1 instructions:   44000000 cycles:   17496008 heartbeat IPC: 2.43457 cumulative IPC: 2.51486 (Simulation time: 0 hr 4 min 32 sec) 
Heartbeat CPU  0 instructions:   38000002 cycles:   17503824 heartbeat IPC: 1.66047 cumulative IPC: 2.17095 (Simulation time: 0 hr 4 min 32 sec) 
Heartbeat CPU  2 instructions:   39000000 cycles:   17576167 heartbeat IPC: 1.72542 cumulative IPC: 2.21891 (Simulation time: 0 hr 4 min 34 sec) 
Heartbeat CPU  3 instructions:   45000002 cycles:   17690631 heartbeat IPC: 2.54311 cumulative IPC: 2.54372 (Simulation time: 0 hr 4 min 35 sec) 
Heartbeat CPU  1 instructions:   45000003 cycles:   17911868 heartbeat IPC: 2.40466 cumulative IPC: 2.51230 (Simulation time: 0 hr 4 min 39 sec) 
Heartbeat CPU  0 instructions:   39000003 cycles:   17941283 heartbeat IPC: 2.28593 cumulative IPC: 2.17376 (Simulation time: 0 hr 4 min 39 sec) 
Heartbeat CPU  2 instructions:   40000000 cycles:   18006788 heartbeat IPC: 2.32223 cumulative IPC: 2.22138 (Simulation time: 0 hr 4 min 40 sec) 
Heartbeat CPU  3 instructions:   46000002 cycles:   18083674 heartbeat IPC: 2.54425 cumulative IPC: 2.54373 (Simulation time: 0 hr 4 min 42 sec) 
Heartbeat CPU  1 instructions:   46000003 cycles:   18325681 heartbeat IPC: 2.41655 cumulative IPC: 2.51014 (Simulation time: 0 hr 4 min 46 sec) 
Heartbeat CPU  0 instructions:   40000000 cycles:   18382014 heartbeat IPC: 2.26895 cumulative IPC: 2.17604 (Simulation time: 0 hr 4 min 47 sec) 
Heartbeat CPU  2 instructions:   41000002 cycles:   18434895 heartbeat IPC: 2.33587 cumulative IPC: 2.22404 (Simulation time: 0 hr 4 min 47 sec) 
Heartbeat CPU  3 instructions:   47000003 cycles:   18477684 heartbeat IPC: 2.53801 cumulative IPC: 2.54361 (Simulation time: 0 hr 4 min 48 sec) 
Heartbeat CPU  1 instructions:   47000003 cycles:   18737724 heartbeat IPC: 2.42693 cumulative IPC: 2.50831 (Simulation time: 0 hr 4 min 52 sec) 
Heartbeat CPU  0 instructions:   41000001 cycles:   18810464 heartbeat IPC: 2.33400 cumulative IPC: 2.17964 (Simulation time: 0 hr 4 min 53 sec) 
Heartbeat CPU  3 instructions:   48000000 cycles:   18871422 heartbeat IPC: 2.53975 cumulative IPC: 2.54353 (Simulation time: 0 hr 4 min 54 sec) 
Heartbeat CPU  2 instructions:   42000002 cycles:   18883623 heartbeat IPC: 2.22852 cumulative IPC: 2.22415 (Simulation time: 0 hr 4 min 54 sec) 
Heartbeat CPU  1 instructions:   48000000 cycles:   19138573 heartbeat IPC: 2.49470 cumulative IPC: 2.50802 (Simulation time: 0 hr 4 min 58 sec) 
Heartbeat CPU  3 instructions:   49000000 cycles:   19264378 heartbeat IPC: 2.54481 cumulative IPC: 2.54355 (Simulation time: 0 hr 5 min 0 sec) 
Heartbeat CPU  0 instructions:   42000003 cycles:   19274185 heartbeat IPC: 2.15647 cumulative IPC: 2.17908 (Simulation time: 0 hr 5 min 0 sec) 
Heartbeat CPU  2 instructions:   43000003 cycles:   19351667 heartbeat IPC: 2.13655 cumulative IPC: 2.22203 (Simulation time: 0 hr 5 min 1 sec) 
Heartbeat CPU  1 instructions:   49000002 cycles:   19545097 heartbeat IPC: 2.45988 cumulative IPC: 2.50702 (Simulation time: 0 hr 5 min 4 sec) 
Heartbeat CPU  3 instructions:   50000001 cycles:   19656232 heartbeat IPC: 2.55197 cumulative IPC: 2.54372 (Simulation time: 0 hr 5 min 6 sec) 
Heartbeat CPU  0 instructions:   43000003 cycles:   19724378 heartbeat IPC: 2.22127 cumulative IPC: 2.18004 (Simulation time: 0 hr 5 min 7 sec) 
Heartbeat CPU  2 instructions:   44000000 cycles:   19779749 heartbeat IPC: 2.33599 cumulative IPC: 2.22450 (Simulation time: 0 hr 5 min 8 sec) 
Heartbeat CPU  1 instructions:   50000003 cycles:   19954933 heartbeat IPC: 2.44000 cumulative IPC: 2.50565 (Simulation time: 0 hr 5 min 11 sec) 
Heartbeat CPU  3 instructions:   51000002 cycles:   20050250 heartbeat IPC: 2.53796 cumulative IPC: 0.04987 (Simulation time: 0 hr 5 min 12 sec) 
Heartbeat CPU  0 instructions:   44000000 cycles:   20159909 heartbeat IPC: 2.29604 cumulative IPC: 2.18255 (Simulation time: 0 hr 5 min 14 sec) 
Heartbeat CPU  2 instructions:   45000002 cycles:   20219421 heartbeat IPC: 2.27443 cumulative IPC: 2.22558 (Simulation time: 0 hr 5 min 15 sec) 
Heartbeat CPU  1 instructions:   51000002 cycles:   20368260 heartbeat IPC: 2.41939 cumulative IPC: 0.04910 (Simulation time: 0 hr 5 min 18 sec) 
Heartbeat CPU  3 instructions:   52000000 cycles:   20460001 heartbeat IPC: 2.44050 cumulative IPC: 0.09775 (Simulation time: 0 hr 5 min 19 sec) 
Heartbeat CPU  0 instructions:   45000000 cycles:   20605162 heartbeat IPC: 2.24591 cumulative IPC: 2.18392 (Simulation time: 0 hr 5 min 21 sec) 
Heartbeat CPU  2 instructions:   46000001 cycles:   20673811 heartbeat IPC: 2.20075 cumulative IPC: 2.22504 (Simulation time: 0 hr 5 min 22 sec) 
Heartbeat CPU  1 instructions:   52000000 cycles:   20786767 heartbeat IPC: 2.38944 cumulative IPC: 0.09622 (Simulation time: 0 hr 5 min 24 sec) 
Heartbeat CPU  3 instructions:   53000002 cycles:   20854462 heartbeat IPC: 2.53511 cumulative IPC: 0.14385 (Simulation time: 0 hr 5 min 25 sec) 
Heartbeat CPU  0 instructions:   46000003 cycles:   21068929 heartbeat IPC: 2.15626 cumulative IPC: 2.18331 (Simulation time: 0 hr 5 min 29 sec) 
Heartbeat CPU  2 instructions:   47000002 cycles:   21105774 heartbeat IPC: 2.31502 cumulative IPC: 2.22688 (Simulation time: 0 hr 5 min 29 sec) 
Heartbeat CPU  1 instructions:   53000003 cycles:   21195075 heartbeat IPC: 2.44914 cumulative IPC: 0.14154 (Simulation time: 0 hr 5 min 31 sec) 
Heartbeat CPU  3 instructions:   54000001 cycles:   21246436 heartbeat IPC: 2.55119 cumulative IPC: 0.18827 (Simulation time: 0 hr 5 min 31 sec) 
Heartbeat CPU  0 instructions:   47000000 cycles:   21512035 heartbeat IPC: 2.25679 cumulative IPC: 2.18482 (Simulation time: 0 hr 5 min 36 sec) 
Heartbeat CPU  2 instructions:   48000000 cycles:   21530611 heartbeat IPC: 2.35384 cumulative IPC: 2.22938 (Simulation time: 0 hr 5 min 36 sec) 
Heartbeat CPU  1 instructions:   54000000 cycles:   21608521 heartbeat IPC: 2.41869 cumulative IPC: 0.18511 (Simulation time: 0 hr 5 min 37 sec) 
Heartbeat CPU  3 instructions:   55000001 cycles:   21639894 heartbeat IPC: 2.54157 cumulative IPC: 0.23105 (Simulation time: 0 hr 5 min 38 sec) 
Heartbeat CPU  0 instructions:   48000000 cycles:   22007575 heartbeat IPC: 2.01800 cumulative IPC: 2.18107 (Simulation time: 0 hr 5 min 44 sec) 
Heartbeat CPU  1 instructions:   55000003 cycles:   22019608 heartbeat IPC: 2.43258 cumulative IPC: 0.22707 (Simulation time: 0 hr 5 min 44 sec) 
Heartbeat CPU  2 instructions:   49000001 cycles:   22022858 heartbeat IPC: 2.03150 cumulative IPC: 2.22496 (Simulation time: 0 hr 5 min 44 sec) 
Heartbeat CPU  3 instructions:   56000000 cycles:   22033142 heartbeat IPC: 2.54292 cumulative IPC: 0.27232 (Simulation time: 0 hr 5 min 44 sec) 
Heartbeat CPU  3 instructions:   57000003 cycles:   22428699 heartbeat IPC: 2.52809 cumulative IPC: 0.31210 (Simulation time: 0 hr 5 min 51 sec) 
Heartbeat CPU  1 instructions:   56000000 cycles:   22437756 heartbeat IPC: 2.39149 cumulative IPC: 0.26741 (Simulation time: 0 hr 5 min 51 sec) 
Heartbeat CPU  2 instructions:   50000000 cycles:   22439862 heartbeat IPC: 2.39806 cumulative IPC: 2.22818 (Simulation time: 0 hr 5 min 51 sec) 
Heartbeat CPU  0 instructions:   49000000 cycles:   22440503 heartbeat IPC: 2.30985 cumulative IPC: 2.18355 (Simulation time: 0 hr 5 min 51 sec) 
Heartbeat CPU  3 instructions:   58000000 cycles:   22822272 heartbeat IPC: 2.54082 cumulative IPC: 0.35053 (Simulation time: 0 hr 5 min 57 sec) 
Heartbeat CPU  2 instructions:   51000001 cycles:   22865639 heartbeat IPC: 2.34865 cumulative IPC: 0.04373 (Simulation time: 0 hr 5 min 58 sec) 
Heartbeat CPU  0 instructions:   50000001 cycles:   22872685 heartbeat IPC: 2.31384 cumulative IPC: 2.18601 (Simulation time: 0 hr 5 min 58 sec) 

Warmup complete CPU  0 instructions:   50000001 cycles:   22872685 (Simulation time: 0 hr 5 min 58 sec) 
Warmup complete CPU  1 instructions:   56865653 cycles:   22872684 (Simulation time: 0 hr 5 min 58 sec) 
Warmup complete CPU  2 instructions:   51017865 cycles:   22872684 (Simulation time: 0 hr 5 min 58 sec) 
Warmup complete CPU  3 instructions:   58126933 cycles:   22872685 (Simulation time: 0 hr 5 min 58 sec) 

Heartbeat CPU  1 instructions:   57000003 cycles:   23222895 heartbeat IPC: 1.27366 cumulative IPC: 0.38363 (Simulation time: 0 hr 5 min 58 sec) 
Heartbeat CPU  1 instructions:   58000000 cycles:   25738608 heartbeat IPC: 0.39750 cumulative IPC: 0.39580 (Simulation time: 0 hr 6 min 3 sec) 
Heartbeat CPU  3 instructions:   59000001 cycles:   28619660 heartbeat IPC: 0.17249 cumulative IPC: 0.15192 (Simulation time: 0 hr 6 min 8 sec) 
Heartbeat CPU  1 instructions:   59000000 cycles:   29173167 heartbeat IPC: 0.29116 cumulative IPC: 0.33876 (Simulation time: 0 hr 6 min 10 sec) 
Heartbeat CPU  2 instructions:   52000000 cycles:   30918814 heartbeat IPC: 0.12417 cumulative IPC: 0.12206 (Simulation time: 0 hr 6 min 12 sec) 
Heartbeat CPU  0 instructions:   51000001 cycles:   31317958 heartbeat IPC: 0.11841 cumulative IPC: 0.11841 (Simulation time: 0 hr 6 min 13 sec) 
Heartbeat CPU  1 instructions:   60000000 cycles:   33193980 heartbeat IPC: 0.24871 cumulative IPC: 0.30368 (Simulation time: 0 hr 6 min 16 sec) 
Heartbeat CPU  3 instructions:   60000000 cycles:   35230036 heartbeat IPC: 0.15128 cumulative IPC: 0.15158 (Simulation time: 0 hr 6 min 19 sec) 
Heartbeat CPU  1 instructions:   61000001 cycles:   37651915 heartbeat IPC: 0.22432 cumulative IPC: 0.27974 (Simulation time: 0 hr 6 min 24 sec) 
Heartbeat CPU  2 instructions:   53000003 cycles:   39330851 heartbeat IPC: 0.11888 cumulative IPC: 0.12043 (Simulation time: 0 hr 6 min 26 sec) 
Heartbeat CPU  0 instructions:   52000000 cycles:   39756651 heartbeat IPC: 0.11850 cumulative IPC: 0.11846 (Simulation time: 0 hr 6 min 27 sec) 
Heartbeat CPU  3 instructions:   61000002 cycles:   41890853 heartbeat IPC: 0.15013 cumulative IPC: 0.15107 (Simulation time: 0 hr 6 min 30 sec) 
Heartbeat CPU  1 instructions:   62000002 cycles:   41995514 heartbeat IPC: 0.23022 cumulative IPC: 0.26849 (Simulation time: 0 hr 6 min 31 sec) 
Heartbeat CPU  1 instructions:   63000000 cycles:   46367316 heartbeat IPC: 0.22874 cumulative IPC: 0.26110 (Simulation time: 0 hr 6 min 38 sec) 
Heartbeat CPU  2 instructions:   54000001 cycles:   47568394 heartbeat IPC: 0.12140 cumulative IPC: 0.12076 (Simulation time: 0 hr 6 min 40 sec) 
Heartbeat CPU  0 instructions:   53000000 cycles:   48472890 heartbeat IPC: 0.11473 cumulative IPC: 0.11719 (Simulation time: 0 hr 6 min 41 sec) 
Heartbeat CPU  3 instructions:   62000001 cycles:   48553608 heartbeat IPC: 0.15009 cumulative IPC: 0.15081 (Simulation time: 0 hr 6 min 42 sec) 
Heartbeat CPU  1 instructions:   64000000 cycles:   50801058 heartbeat IPC: 0.22554 cumulative IPC: 0.25545 (Simulation time: 0 hr 6 min 45 sec) 
Heartbeat CPU  3 instructions:   63000003 cycles:   55222171 heartbeat IPC: 0.14996 cumulative IPC: 0.15064 (Simulation time: 0 hr 6 min 52 sec) 
Heartbeat CPU  2 instructions:   55000003 cycles:   55861578 heartbeat IPC: 0.12058 cumulative IPC: 0.12071 (Simulation time: 0 hr 6 min 53 sec) 
Heartbeat CPU  1 instructions:   65000002 cycles:   56188775 heartbeat IPC: 0.18561 cumulative IPC: 0.24416 (Simulation time: 0 hr 6 min 54 sec) 
Heartbeat CPU  0 instructions:   54000001 cycles:   56969247 heartbeat IPC: 0.11770 cumulative IPC: 0.11731 (Simulation time: 0 hr 6 min 55 sec) 
Heartbeat CPU  1 instructions:   66000002 cycles:   61496044 heartbeat IPC: 0.18842 cumulative IPC: 0.23650 (Simulation time: 0 hr 7 min 2 sec) 
Heartbeat CPU  3 instructions:   64000000 cycles:   61922689 heartbeat IPC: 0.14924 cumulative IPC: 0.15040 (Simulation time: 0 hr 7 min 3 sec) 
Heartbeat CPU  2 instructions:   56000000 cycles:   64155975 heartbeat IPC: 0.12056 cumulative IPC: 0.12068 (Simulation time: 0 hr 7 min 6 sec) 
Heartbeat CPU  0 instructions:   55000003 cycles:   65567647 heartbeat IPC: 0.11630 cumulative IPC: 0.11711 (Simulation time: 0 hr 7 min 9 sec) 
Heartbeat CPU  3 instructions:   65000000 cycles:   68508064 heartbeat IPC: 0.15185 cumulative IPC: 0.15061 (Simulation time: 0 hr 7 min 13 sec) 
Heartbeat CPU  2 instructions:   57000000 cycles:   68520498 heartbeat IPC: 0.22912 cumulative IPC: 0.13105 (Simulation time: 0 hr 7 min 13 sec) 
Heartbeat CPU  1 instructions:   67000003 cycles:   69629529 heartbeat IPC: 0.12295 cumulative IPC: 0.21675 (Simulation time: 0 hr 7 min 15 sec) 
Heartbeat CPU  0 instructions:   56000000 cycles:   72986841 heartbeat IPC: 0.13479 cumulative IPC: 0.11973 (Simulation time: 0 hr 7 min 21 sec) 
Heartbeat CPU  2 instructions:   58000001 cycles:   73743334 heartbeat IPC: 0.19147 cumulative IPC: 0.13725 (Simulation time: 0 hr 7 min 22 sec) 
Heartbeat CPU  3 instructions:   66000002 cycles:   74971762 heartbeat IPC: 0.15471 cumulative IPC: 0.15112 (Simulation time: 0 hr 7 min 24 sec) 
Heartbeat CPU  0 instructions:   57000001 cycles:   77625600 heartbeat IPC: 0.21558 cumulative IPC: 0.12785 (Simulation time: 0 hr 7 min 28 sec) 
Heartbeat CPU  1 instructions:   68000000 cycles:   79480740 heartbeat IPC: 0.10151 cumulative IPC: 0.19669 (Simulation time: 0 hr 7 min 31 sec) 
Heartbeat CPU  3 instructions:   67000000 cycles:   81436109 heartbeat IPC: 0.15469 cumulative IPC: 0.15151 (Simulation time: 0 hr 7 min 34 sec) 
Heartbeat CPU  2 instructions:   59000001 cycles:   81699394 heartbeat IPC: 0.12569 cumulative IPC: 0.13569 (Simulation time: 0 hr 7 min 34 sec) 
Heartbeat CPU  0 instructions:   58000003 cycles:   83873416 heartbeat IPC: 0.16006 cumulative IPC: 0.13115 (Simulation time: 0 hr 7 min 37 sec) 
Heartbeat CPU  1 instructions:   69000000 cycles:   86726121 heartbeat IPC: 0.13802 cumulative IPC: 0.19003 (Simulation time: 0 hr 7 min 41 sec) 
Heartbeat CPU  3 instructions:   68000000 cycles:   87869288 heartbeat IPC: 0.15544 cumulative IPC: 0.15190 (Simulation time: 0 hr 7 min 43 sec) 
Heartbeat CPU  2 instructions:   60000000 cycles:   89803370 heartbeat IPC: 0.12340 cumulative IPC: 0.13420 (Simulation time: 0 hr 7 min 46 sec) 
Heartbeat CPU  0 instructions:   59000003 cycles:   92193544 heartbeat IPC: 0.12019 cumulative IPC: 0.12983 (Simulation time: 0 hr 7 min 49 sec) 
Heartbeat CPU  1 instructions:   70000002 cycles:   92240846 heartbeat IPC: 0.18133 cumulative IPC: 0.18934 (Simulation time: 0 hr 7 min 49 sec) 
Heartbeat CPU  3 instructions:   69000001 cycles:   94316778 heartbeat IPC: 0.15510 cumulative IPC: 0.15219 (Simulation time: 0 hr 7 min 53 sec) 
Heartbeat CPU  1 instructions:   71000002 cycles:   95242485 heartbeat IPC: 0.33315 cumulative IPC: 0.19531 (Simulation time: 0 hr 7 min 55 sec) 
Heartbeat CPU  2 instructions:   61000001 cycles:   97919144 heartbeat IPC: 0.12322 cumulative IPC: 0.13301 (Simulation time: 0 hr 8 min 0 sec) 
Heartbeat CPU  1 instructions:   72000000 cycles:   99680986 heartbeat IPC: 0.22530 cumulative IPC: 0.19704 (Simulation time: 0 hr 8 min 2 sec) 
Heartbeat CPU  0 instructions:   60000000 cycles:  100581511 heartbeat IPC: 0.11922 cumulative IPC: 0.12869 (Simulation time: 0 hr 8 min 4 sec) 
Heartbeat CPU  3 instructions:   70000000 cycles:  100769386 heartbeat IPC: 0.15498 cumulative IPC: 0.15242 (Simulation time: 0 hr 8 min 4 sec) 
Heartbeat CPU  1 instructions:   73000001 cycles:  103274765 heartbeat IPC: 0.27826 cumulative IPC: 0.20067 (Simulation time: 0 hr 8 min 8 sec) 
Heartbeat CPU  2 instructions:   62000002 cycles:  106105781 heartbeat IPC: 0.12215 cumulative IPC: 0.13194 (Simulation time: 0 hr 8 min 13 sec) 
Heartbeat CPU  1 instructions:   74000001 cycles:  106489960 heartbeat IPC: 0.31102 cumulative IPC: 0.20491 (Simulation time: 0 hr 8 min 14 sec) 
Heartbeat CPU  3 instructions:   71000000 cycles:  107237151 heartbeat IPC: 0.15461 cumulative IPC: 0.15259 (Simulation time: 0 hr 8 min 15 sec) 
Heartbeat CPU  0 instructions:   61000000 cycles:  108917363 heartbeat IPC: 0.11996 cumulative IPC: 0.12784 (Simulation time: 0 hr 8 min 18 sec) 
Heartbeat CPU  1 instructions:   75000001 cycles:  109965970 heartbeat IPC: 0.28769 cumulative IPC: 0.20822 (Simulation time: 0 hr 8 min 20 sec) 
Heartbeat CPU  3 instructions:   72000000 cycles:  113727873 heartbeat IPC: 0.15407 cumulative IPC: 0.15269 (Simulation time: 0 hr 8 min 26 sec) 
Heartbeat CPU  1 instructions:   76000000 cycles:  114317037 heartbeat IPC: 0.22983 cumulative IPC: 0.20925 (Simulation time: 0 hr 8 min 27 sec) 
Heartbeat CPU  2 instructions:   63000000 cycles:  114320613 heartbeat IPC: 0.12173 cumulative IPC: 0.13103 (Simulation time: 0 hr 8 min 27 sec) 
Heartbeat CPU  0 instructions:   62000001 cycles:  117340229 heartbeat IPC: 0.11872 cumulative IPC: 0.12703 (Simulation time: 0 hr 8 min 32 sec) 
Heartbeat CPU  1 instructions:   77000002 cycles:  118573929 heartbeat IPC: 0.23491 cumulative IPC: 0.21039 (Simulation time: 0 hr 8 min 34 sec) 
Heartbeat CPU  3 instructions:   73000001 cycles:  120146509 heartbeat IPC: 0.15580 cumulative IPC: 0.15290 (Simulation time: 0 hr 8 min 36 sec) 
Heartbeat CPU  2 instructions:   64000000 cycles:  122503707 heartbeat IPC: 0.12220 cumulative IPC: 0.13030 (Simulation time: 0 hr 8 min 40 sec) 
Heartbeat CPU  1 instructions:   78000000 cycles:  125470330 heartbeat IPC: 0.14500 cumulative IPC: 0.20599 (Simulation time: 0 hr 8 min 44 sec) 
Heartbeat CPU  0 instructions:   63000000 cycles:  125677217 heartbeat IPC: 0.11995 cumulative IPC: 0.12645 (Simulation time: 0 hr 8 min 44 sec) 
Heartbeat CPU  3 instructions:   74000001 cycles:  126634090 heartbeat IPC: 0.15414 cumulative IPC: 0.15298 (Simulation time: 0 hr 8 min 45 sec) 
Heartbeat CPU  2 instructions:   65000001 cycles:  130634538 heartbeat IPC: 0.12299 cumulative IPC: 0.12975 (Simulation time: 0 hr 8 min 51 sec) 
Heartbeat CPU  1 instructions:   79000001 cycles:  132501293 heartbeat IPC: 0.14223 cumulative IPC: 0.20190 (Simulation time: 0 hr 8 min 54 sec) 
Heartbeat CPU  3 instructions:   75000000 cycles:  133079900 heartbeat IPC: 0.15514 cumulative IPC: 0.15310 (Simulation time: 0 hr 8 min 55 sec) 
Heartbeat CPU  0 instructions:   64000000 cycles:  134096763 heartbeat IPC: 0.11877 cumulative IPC: 0.12587 (Simulation time: 0 hr 8 min 56 sec) 
Heartbeat CPU  2 instructions:   66000002 cycles:  138807661 heartbeat IPC: 0.12235 cumulative IPC: 0.12923 (Simulation time: 0 hr 9 min 3 sec) 
Heartbeat CPU  1 instructions:   80000000 cycles:  139513020 heartbeat IPC: 0.14262 cumulative IPC: 0.19834 (Simulation time: 0 hr 9 min 4 sec) 
Heartbeat CPU  3 instructions:   76000000 cycles:  139547871 heartbeat IPC: 0.15461 cumulative IPC: 0.15319 (Simulation time: 0 hr 9 min 4 sec) 
Heartbeat CPU  0 instructions:   65000003 cycles:  142515236 heartbeat IPC: 0.11879 cumulative IPC: 0.12537 (Simulation time: 0 hr 9 min 8 sec) 
Heartbeat CPU  3 instructions:   77000003 cycles:  146002988 heartbeat IPC: 0.15492 cumulative IPC: 0.15328 (Simulation time: 0 hr 9 min 13 sec) 
Heartbeat CPU  1 instructions:   81000000 cycles:  146480755 heartbeat IPC: 0.14352 cumulative IPC: 0.19525 (Simulation time: 0 hr 9 min 13 sec) 
Heartbeat CPU  2 instructions:   67000002 cycles:  147023622 heartbeat IPC: 0.12171 cumulative IPC: 0.12873 (Simulation time: 0 hr 9 min 14 sec) 
Heartbeat CPU  0 instructions:   66000001 cycles:  150963462 heartbeat IPC: 0.11837 cumulative IPC: 0.12491 (Simulation time: 0 hr 9 min 20 sec) 
Heartbeat CPU  3 instructions:   78000002 cycles:  152418616 heartbeat IPC: 0.15587 cumulative IPC: 0.15341 (Simulation time: 0 hr 9 min 22 sec) 
Heartbeat CPU  1 instructions:   82000001 cycles:  153397975 heartbeat IPC: 0.14457 cumulative IPC: 0.19256 (Simulation time: 0 hr 9 min 23 sec) 
Heartbeat CPU  2 instructions:   68000000 cycles:  155439919 heartbeat IPC: 0.11882 cumulative IPC: 0.12810 (Simulation time: 0 hr 9 min 26 sec) 
Heartbeat CPU  3 instructions:   79000003 cycles:  158748261 heartbeat IPC: 0.15799 cumulative IPC: 0.15362 (Simulation time: 0 hr 9 min 31 sec) 
Heartbeat CPU  0 instructions:   67000001 cycles:  159405414 heartbeat IPC: 0.11846 cumulative IPC: 0.12451 (Simulation time: 0 hr 9 min 32 sec) 
Heartbeat CPU  1 instructions:   83000002 cycles:  160321130 heartbeat IPC: 0.14444 cumulative IPC: 0.19014 (Simulation time: 0 hr 9 min 33 sec) 
Heartbeat CPU  2 instructions:   69000000 cycles:  163670786 heartbeat IPC: 0.12149 cumulative IPC: 0.12772 (Simulation time: 0 hr 9 min 38 sec) 
Heartbeat CPU  3 instructions:   80000000 cycles:  165227090 heartbeat IPC: 0.15435 cumulative IPC: 0.15365 (Simulation time: 0 hr 9 min 40 sec) 
Heartbeat CPU  1 instructions:   84000000 cycles:  167268858 heartbeat IPC: 0.14393 cumulative IPC: 0.18792 (Simulation time: 0 hr 9 min 43 sec) 
Heartbeat CPU  0 instructions:   68000000 cycles:  168096505 heartbeat IPC: 0.11506 cumulative IPC: 0.12395 (Simulation time: 0 hr 9 min 44 sec) 
Heartbeat CPU  3 instructions:   81000000 cycles:  171681242 heartbeat IPC: 0.15494 cumulative IPC: 0.15371 (Simulation time: 0 hr 9 min 50 sec) 
Heartbeat CPU  2 instructions:   70000003 cycles:  171970850 heartbeat IPC: 0.12048 cumulative IPC: 0.12731 (Simulation time: 0 hr 9 min 50 sec) 
Heartbeat CPU  1 instructions:   85000001 cycles:  174214220 heartbeat IPC: 0.14398 cumulative IPC: 0.18590 (Simulation time: 0 hr 9 min 53 sec) 
Heartbeat CPU  0 instructions:   69000002 cycles:  176614725 heartbeat IPC: 0.11740 cumulative IPC: 0.12358 (Simulation time: 0 hr 9 min 57 sec) 
Heartbeat CPU  3 instructions:   82000001 cycles:  178132026 heartbeat IPC: 0.15502 cumulative IPC: 0.15376 (Simulation time: 0 hr 9 min 59 sec) 
Heartbeat CPU  2 instructions:   71000001 cycles:  179028182 heartbeat IPC: 0.14170 cumulative IPC: 0.12796 (Simulation time: 0 hr 10 min 0 sec) 
Heartbeat CPU  1 instructions:   86000000 cycles:  181172299 heartbeat IPC: 0.14372 cumulative IPC: 0.18405 (Simulation time: 0 hr 10 min 4 sec) 
Heartbeat CPU  2 instructions:   72000000 cycles:  183433215 heartbeat IPC: 0.22701 cumulative IPC: 0.13068 (Simulation time: 0 hr 10 min 8 sec) 
Heartbeat CPU  3 instructions:   83000003 cycles:  184564874 heartbeat IPC: 0.15545 cumulative IPC: 0.15383 (Simulation time: 0 hr 10 min 10 sec) 
Heartbeat CPU  0 instructions:   70000000 cycles:  185203274 heartbeat IPC: 0.11643 cumulative IPC: 0.12321 (Simulation time: 0 hr 10 min 10 sec) 
Heartbeat CPU  1 instructions:   87000001 cycles:  188185275 heartbeat IPC: 0.14259 cumulative IPC: 0.18229 (Simulation time: 0 hr 10 min 15 sec) 
Heartbeat CPU  2 instructions:   73000001 cycles:  189388227 heartbeat IPC: 0.16793 cumulative IPC: 0.13201 (Simulation time: 0 hr 10 min 17 sec) 
Heartbeat CPU  3 instructions:   84000000 cycles:  191040102 heartbeat IPC: 0.15443 cumulative IPC: 0.15385 (Simulation time: 0 hr 10 min 20 sec) 
Heartbeat CPU  0 instructions:   71000002 cycles:  191209983 heartbeat IPC: 0.16648 cumulative IPC: 0.12475 (Simulation time: 0 hr 10 min 20 sec) 
Heartbeat CPU  1 instructions:   88000000 cycles:  195189793 heartbeat IPC: 0.14276 cumulative IPC: 0.18068 (Simulation time: 0 hr 10 min 26 sec) 
Heartbeat CPU  0 instructions:   72000000 cycles:  195930460 heartbeat IPC: 0.21184 cumulative IPC: 0.12713 (Simulation time: 0 hr 10 min 28 sec) 
Heartbeat CPU  2 instructions:   74000000 cycles:  197470668 heartbeat IPC: 0.12372 cumulative IPC: 0.13163 (Simulation time: 0 hr 10 min 30 sec) 
Heartbeat CPU  3 instructions:   85000003 cycles:  197487955 heartbeat IPC: 0.15509 cumulative IPC: 0.15390 (Simulation time: 0 hr 10 min 30 sec) 
Heartbeat CPU  1 instructions:   89000003 cycles:  202226875 heartbeat IPC: 0.14210 cumulative IPC: 0.17917 (Simulation time: 0 hr 10 min 37 sec) 
Heartbeat CPU  0 instructions:   73000000 cycles:  203200485 heartbeat IPC: 0.13755 cumulative IPC: 0.12755 (Simulation time: 0 hr 10 min 38 sec) 
Heartbeat CPU  3 instructions:   86000003 cycles:  203984298 heartbeat IPC: 0.15393 cumulative IPC: 0.15390 (Simulation time: 0 hr 10 min 39 sec) 
Heartbeat CPU  2 instructions:   75000003 cycles:  205595881 heartbeat IPC: 0.12307 cumulative IPC: 0.13125 (Simulation time: 0 hr 10 min 42 sec) 
Heartbeat CPU  1 instructions:   90000000 cycles:  209237083 heartbeat IPC: 0.14265 cumulative IPC: 0.17779 (Simulation time: 0 hr 10 min 47 sec) 
Heartbeat CPU  3 instructions:   87000003 cycles:  210516167 heartbeat IPC: 0.15310 cumulative IPC: 0.15387 (Simulation time: 0 hr 10 min 49 sec) 
Heartbeat CPU  0 instructions:   74000002 cycles:  211526179 heartbeat IPC: 0.12011 cumulative IPC: 0.12722 (Simulation time: 0 hr 10 min 50 sec) 
Heartbeat CPU  2 instructions:   76000000 cycles:  213669717 heartbeat IPC: 0.12386 cumulative IPC: 0.13094 (Simulation time: 0 hr 10 min 53 sec) 
Heartbeat CPU  1 instructions:   91000002 cycles:  216246487 heartbeat IPC: 0.14267 cumulative IPC: 0.17652 (Simulation time: 0 hr 10 min 57 sec) 
Heartbeat CPU  3 instructions:   88000000 cycles:  217037217 heartbeat IPC: 0.15335 cumulative IPC: 0.15385 (Simulation time: 0 hr 10 min 58 sec) 
Heartbeat CPU  0 instructions:   75000003 cycles:  219874360 heartbeat IPC: 0.11979 cumulative IPC: 0.12690 (Simulation time: 0 hr 11 min 2 sec) 
Heartbeat CPU  2 instructions:   77000001 cycles:  221842728 heartbeat IPC: 0.12235 cumulative IPC: 0.13058 (Simulation time: 0 hr 11 min 4 sec) 
Heartbeat CPU  1 instructions:   92000000 cycles:  223244582 heartbeat IPC: 0.14290 cumulative IPC: 0.17535 (Simulation time: 0 hr 11 min 6 sec) 
Heartbeat CPU  3 instructions:   89000001 cycles:  223566761 heartbeat IPC: 0.15315 cumulative IPC: 0.15383 (Simulation time: 0 hr 11 min 7 sec) 
Heartbeat CPU  0 instructions:   76000000 cycles:  228255682 heartbeat IPC: 0.11931 cumulative IPC: 0.12659 (Simulation time: 0 hr 11 min 14 sec) 
Heartbeat CPU  2 instructions:   78000002 cycles:  230028355 heartbeat IPC: 0.12217 cumulative IPC: 0.13025 (Simulation time: 0 hr 11 min 16 sec) 
Heartbeat CPU  3 instructions:   90000001 cycles:  230127892 heartbeat IPC: 0.15241 cumulative IPC: 0.15379 (Simulation time: 0 hr 11 min 16 sec) 
Heartbeat CPU  1 instructions:   93000000 cycles:  230164190 heartbeat IPC: 0.14452 cumulative IPC: 0.17432 (Simulation time: 0 hr 11 min 16 sec) 
Heartbeat CPU  3 instructions:   91000003 cycles:  236035164 heartbeat IPC: 0.16928 cumulative IPC: 0.15422 (Simulation time: 0 hr 11 min 25 sec) 
Heartbeat CPU  0 instructions:   77000000 cycles:  236682326 heartbeat IPC: 0.11867 cumulative IPC: 0.12628 (Simulation time: 0 hr 11 min 26 sec) 
Heartbeat CPU  1 instructions:   94000001 cycles:  237121759 heartbeat IPC: 0.14373 cumulative IPC: 0.17332 (Simulation time: 0 hr 11 min 27 sec) 
Heartbeat CPU  2 instructions:   79000000 cycles:  238187119 heartbeat IPC: 0.12257 cumulative IPC: 0.12996 (Simulation time: 0 hr 11 min 28 sec) 
Heartbeat CPU  3 instructions:   92000000 cycles:  241187210 heartbeat IPC: 0.19410 cumulative IPC: 0.15516 (Simulation time: 0 hr 11 min 33 sec) 
Heartbeat CPU  1 instructions:   95000002 cycles:  244095987 heartbeat IPC: 0.14339 cumulative IPC: 0.17238 (Simulation time: 0 hr 11 min 37 sec) 
Heartbeat CPU  0 instructions:   78000001 cycles:  245015367 heartbeat IPC: 0.12000 cumulative IPC: 0.12605 (Simulation time: 0 hr 11 min 39 sec) 
Heartbeat CPU  2 instructions:   80000000 cycles:  246317498 heartbeat IPC: 0.12300 cumulative IPC: 0.12971 (Simulation time: 0 hr 11 min 40 sec) 
Heartbeat CPU  3 instructions:   93000000 cycles:  247416049 heartbeat IPC: 0.16054 cumulative IPC: 0.15531 (Simulation time: 0 hr 11 min 42 sec) 
Heartbeat CPU  1 instructions:   96000000 cycles:  251055553 heartbeat IPC: 0.14369 cumulative IPC: 0.17150 (Simulation time: 0 hr 11 min 47 sec) 
Heartbeat CPU  0 instructions:   79000002 cycles:  253425186 heartbeat IPC: 0.11891 cumulative IPC: 0.12578 (Simulation time: 0 hr 11 min 50 sec) 
Heartbeat CPU  3 instructions:   94000000 cycles:  254291435 heartbeat IPC: 0.14545 cumulative IPC: 0.15501 (Simulation time: 0 hr 11 min 51 sec) 
Heartbeat CPU  2 instructions:   81000003 cycles:  254490041 heartbeat IPC: 0.12236 cumulative IPC: 0.12945 (Simulation time: 0 hr 11 min 52 sec) 
Heartbeat CPU  1 instructions:   97000001 cycles:  258052196 heartbeat IPC: 0.14293 cumulative IPC: 0.17065 (Simulation time: 0 hr 11 min 57 sec) 
Heartbeat CPU  3 instructions:   95000001 cycles:  261221861 heartbeat IPC: 0.14429 cumulative IPC: 0.15470 (Simulation time: 0 hr 12 min 1 sec) 
Heartbeat CPU  0 instructions:   80000000 cycles:  261865313 heartbeat IPC: 0.11848 cumulative IPC: 0.12553 (Simulation time: 0 hr 12 min 2 sec) 
Heartbeat CPU  2 instructions:   82000002 cycles:  262678668 heartbeat IPC: 0.12212 cumulative IPC: 0.12920 (Simulation time: 0 hr 12 min 3 sec) 
Heartbeat CPU  1 instructions:   98000002 cycles:  265050274 heartbeat IPC: 0.14290 cumulative IPC: 0.16985 (Simulation time: 0 hr 12 min 6 sec) 
Heartbeat CPU  3 instructions:   96000000 cycles:  268162169 heartbeat IPC: 0.14409 cumulative IPC: 0.15440 (Simulation time: 0 hr 12 min 11 sec) 
Heartbeat CPU  0 instructions:   81000000 cycles:  270281206 heartbeat IPC: 0.11882 cumulative IPC: 0.12530 (Simulation time: 0 hr 12 min 14 sec) 
Heartbeat CPU  2 instructions:   83000001 cycles:  271097035 heartbeat IPC: 0.11879 cumulative IPC: 0.12884 (Simulation time: 0 hr 12 min 15 sec) 
Heartbeat CPU  1 instructions:   99000000 cycles:  272038303 heartbeat IPC: 0.14310 cumulative IPC: 0.16910 (Simulation time: 0 hr 12 min 16 sec) 
Heartbeat CPU  3 instructions:   97000001 cycles:  275122529 heartbeat IPC: 0.14367 cumulative IPC: 0.15411 (Simulation time: 0 hr 12 min 20 sec) 
Heartbeat CPU  0 instructions:   82000001 cycles:  278944566 heartbeat IPC: 0.11543 cumulative IPC: 0.12496 (Simulation time: 0 hr 12 min 25 sec) 
*** Reached end of trace for Core: 1 Repeating trace: /data3/CLOUD9/traces/cloud9_phase2_core1.trace.xz
Heartbeat CPU  1 instructions:  100000000 cycles:  279082280 heartbeat IPC: 0.14197 cumulative IPC: 0.16836 (Simulation time: 0 hr 12 min 26 sec) 
Heartbeat CPU  2 instructions:   84000000 cycles:  279381931 heartbeat IPC: 0.12070 cumulative IPC: 0.12858 (Simulation time: 0 hr 12 min 26 sec) 
Heartbeat CPU  3 instructions:   98000002 cycles:  282084608 heartbeat IPC: 0.14364 cumulative IPC: 0.15382 (Simulation time: 0 hr 12 min 30 sec) 
Heartbeat CPU  1 instructions:  101000002 cycles:  286243156 heartbeat IPC: 0.13965 cumulative IPC: 0.16758 (Simulation time: 0 hr 12 min 35 sec) 
Heartbeat CPU  0 instructions:   83000001 cycles:  287382328 heartbeat IPC: 0.11851 cumulative IPC: 0.12476 (Simulation time: 0 hr 12 min 37 sec) 
Heartbeat CPU  2 instructions:   85000002 cycles:  287698149 heartbeat IPC: 0.12025 cumulative IPC: 0.12832 (Simulation time: 0 hr 12 min 37 sec) 
Heartbeat CPU  3 instructions:   99000002 cycles:  289036961 heartbeat IPC: 0.14384 cumulative IPC: 0.15356 (Simulation time: 0 hr 12 min 39 sec) 
Heartbeat CPU  1 instructions:  102000003 cycles:  293357379 heartbeat IPC: 0.14056 cumulative IPC: 0.16686 (Simulation time: 0 hr 12 min 46 sec) 
Heartbeat CPU  2 instructions:   86000003 cycles:  293564651 heartbeat IPC: 0.17046 cumulative IPC: 0.12923 (Simulation time: 0 hr 12 min 46 sec) 
Heartbeat CPU  0 instructions:   84000000 cycles:  295911454 heartbeat IPC: 0.11725 cumulative IPC: 0.12452 (Simulation time: 0 hr 12 min 50 sec) 
*** Reached end of trace for Core: 3 Repeating trace: /data3/CLOUD9/traces/cloud9_phase2_core3.trace.xz
Heartbeat CPU  3 instructions:  100000000 cycles:  295994361 heartbeat IPC: 0.14373 cumulative IPC: 0.15331 (Simulation time: 0 hr 12 min 50 sec) 
Heartbeat CPU  2 instructions:   87000002 cycles:  298134018 heartbeat IPC: 0.21885 cumulative IPC: 0.13072 (Simulation time: 0 hr 12 min 53 sec) 
Heartbeat CPU  1 instructions:  103000002 cycles:  300454505 heartbeat IPC: 0.14090 cumulative IPC: 0.16620 (Simulation time: 0 hr 12 min 57 sec) 
Heartbeat CPU  3 instructions:  101000000 cycles:  302258858 heartbeat IPC: 0.15963 cumulative IPC: 0.15345 (Simulation time: 0 hr 12 min 59 sec) 
Heartbeat CPU  0 instructions:   85000003 cycles:  304490002 heartbeat IPC: 0.11657 cumulative IPC: 0.12428 (Simulation time: 0 hr 13 min 2 sec) 
Heartbeat CPU  2 instructions:   88000000 cycles:  305203882 heartbeat IPC: 0.14145 cumulative IPC: 0.13099 (Simulation time: 0 hr 13 min 3 sec) 
Heartbeat CPU  1 instructions:  104000000 cycles:  307519666 heartbeat IPC: 0.14154 cumulative IPC: 0.16559 (Simulation time: 0 hr 13 min 7 sec) 
Heartbeat CPU  3 instructions:  102000002 cycles:  308398545 heartbeat IPC: 0.16288 cumulative IPC: 0.15366 (Simulation time: 0 hr 13 min 8 sec) 
Heartbeat CPU  0 instructions:   86000000 cycles:  309162559 heartbeat IPC: 0.21401 cumulative IPC: 0.12575 (Simulation time: 0 hr 13 min 10 sec) 
Heartbeat CPU  2 instructions:   89000000 cycles:  313321913 heartbeat IPC: 0.12318 cumulative IPC: 0.13077 (Simulation time: 0 hr 13 min 16 sec) 
Heartbeat CPU  0 instructions:   87000002 cycles:  314312095 heartbeat IPC: 0.19419 cumulative IPC: 0.12696 (Simulation time: 0 hr 13 min 18 sec) 
Heartbeat CPU  1 instructions:  105000003 cycles:  314564361 heartbeat IPC: 0.14195 cumulative IPC: 0.16502 (Simulation time: 0 hr 13 min 18 sec) 
Heartbeat CPU  3 instructions:  103000001 cycles:  314723392 heartbeat IPC: 0.15811 cumulative IPC: 0.15375 (Simulation time: 0 hr 13 min 18 sec) 
Heartbeat CPU  3 instructions:  104000000 cycles:  321006260 heartbeat IPC: 0.15916 cumulative IPC: 0.15387 (Simulation time: 0 hr 13 min 27 sec) 
Heartbeat CPU  2 instructions:   90000001 cycles:  321502518 heartbeat IPC: 0.12224 cumulative IPC: 0.13054 (Simulation time: 0 hr 13 min 28 sec) 
Heartbeat CPU  1 instructions:  106000002 cycles:  321663788 heartbeat IPC: 0.14086 cumulative IPC: 0.16444 (Simulation time: 0 hr 13 min 28 sec) 
Heartbeat CPU  0 instructions:   88000000 cycles:  322334265 heartbeat IPC: 0.12465 cumulative IPC: 0.12689 (Simulation time: 0 hr 13 min 29 sec) 
Heartbeat CPU  3 instructions:  105000002 cycles:  327297680 heartbeat IPC: 0.15895 cumulative IPC: 0.15397 (Simulation time: 0 hr 13 min 36 sec) 
Heartbeat CPU  1 instructions:  107000000 cycles:  328736734 heartbeat IPC: 0.14138 cumulative IPC: 0.16391 (Simulation time: 0 hr 13 min 38 sec) 
Heartbeat CPU  2 instructions:   91000003 cycles:  329733833 heartbeat IPC: 0.12149 cumulative IPC: 0.13029 (Simulation time: 0 hr 13 min 39 sec) 
Heartbeat CPU  0 instructions:   89000000 cycles:  330658286 heartbeat IPC: 0.12013 cumulative IPC: 0.12671 (Simulation time: 0 hr 13 min 40 sec) 
Heartbeat CPU  3 instructions:  106000002 cycles:  333597188 heartbeat IPC: 0.15874 cumulative IPC: 0.15407 (Simulation time: 0 hr 13 min 44 sec) 
Heartbeat CPU  1 instructions:  108000000 cycles:  335791113 heartbeat IPC: 0.14176 cumulative IPC: 0.16341 (Simulation time: 0 hr 13 min 47 sec) 
Heartbeat CPU  2 instructions:   92000000 cycles:  337979463 heartbeat IPC: 0.12128 cumulative IPC: 0.13006 (Simulation time: 0 hr 13 min 51 sec) 
Heartbeat CPU  0 instructions:   90000001 cycles:  338988922 heartbeat IPC: 0.12004 cumulative IPC: 0.12654 (Simulation time: 0 hr 13 min 52 sec) 
Heartbeat CPU  3 instructions:  107000001 cycles:  339896901 heartbeat IPC: 0.15874 cumulative IPC: 0.15416 (Simulation time: 0 hr 13 min 53 sec) 
Heartbeat CPU  1 instructions:  109000000 cycles:  342809920 heartbeat IPC: 0.14247 cumulative IPC: 0.16295 (Simulation time: 0 hr 13 min 57 sec) 
Heartbeat CPU  2 instructions:   93000003 cycles:  346190054 heartbeat IPC: 0.12179 cumulative IPC: 0.12985 (Simulation time: 0 hr 14 min 2 sec) 
Heartbeat CPU  3 instructions:  108000000 cycles:  346191171 heartbeat IPC: 0.15887 cumulative IPC: 0.15425 (Simulation time: 0 hr 14 min 2 sec) 
Heartbeat CPU  0 instructions:   91000000 cycles:  347409189 heartbeat IPC: 0.11876 cumulative IPC: 0.12633 (Simulation time: 0 hr 14 min 4 sec) 
Heartbeat CPU  1 instructions:  110000001 cycles:  349762959 heartbeat IPC: 0.14382 cumulative IPC: 0.16254 (Simulation time: 0 hr 14 min 7 sec) 
Heartbeat CPU  3 instructions:  109000003 cycles:  352522912 heartbeat IPC: 0.15793 cumulative IPC: 0.15432 (Simulation time: 0 hr 14 min 11 sec) 
Heartbeat CPU  2 instructions:   94000003 cycles:  354366090 heartbeat IPC: 0.12231 cumulative IPC: 0.12966 (Simulation time: 0 hr 14 min 13 sec) 
Heartbeat CPU  0 instructions:   92000000 cycles:  355779984 heartbeat IPC: 0.11946 cumulative IPC: 0.12616 (Simulation time: 0 hr 14 min 15 sec) 
Heartbeat CPU  1 instructions:  111000001 cycles:  356845256 heartbeat IPC: 0.14120 cumulative IPC: 0.16209 (Simulation time: 0 hr 14 min 17 sec) 
Heartbeat CPU  3 instructions:  110000000 cycles:  358877494 heartbeat IPC: 0.15737 cumulative IPC: 0.15438 (Simulation time: 0 hr 14 min 20 sec) 
Heartbeat CPU  2 instructions:   95000000 cycles:  362575853 heartbeat IPC: 0.12181 cumulative IPC: 0.12947 (Simulation time: 0 hr 14 min 25 sec) 
Heartbeat CPU  1 instructions:  112000000 cycles:  363940278 heartbeat IPC: 0.14094 cumulative IPC: 0.16165 (Simulation time: 0 hr 14 min 27 sec) 
Heartbeat CPU  0 instructions:   93000003 cycles:  364149768 heartbeat IPC: 0.11948 cumulative IPC: 0.12600 (Simulation time: 0 hr 14 min 27 sec) 
Heartbeat CPU  3 instructions:  111000003 cycles:  365257240 heartbeat IPC: 0.15675 cumulative IPC: 0.15443 (Simulation time: 0 hr 14 min 29 sec) 
Heartbeat CPU  2 instructions:   96000000 cycles:  370812442 heartbeat IPC: 0.12141 cumulative IPC: 0.12928 (Simulation time: 0 hr 14 min 36 sec) 
Heartbeat CPU  1 instructions:  113000003 cycles:  371026952 heartbeat IPC: 0.14111 cumulative IPC: 0.16123 (Simulation time: 0 hr 14 min 37 sec) 
Heartbeat CPU  3 instructions:  112000000 cycles:  371634805 heartbeat IPC: 0.15680 cumulative IPC: 0.15447 (Simulation time: 0 hr 14 min 37 sec) 
Heartbeat CPU  0 instructions:   94000003 cycles:  372564104 heartbeat IPC: 0.11884 cumulative IPC: 0.12583 (Simulation time: 0 hr 14 min 39 sec) 
Heartbeat CPU  3 instructions:  113000000 cycles:  378021842 heartbeat IPC: 0.15657 cumulative IPC: 0.15451 (Simulation time: 0 hr 14 min 46 sec) 
Heartbeat CPU  1 instructions:  114000003 cycles:  378156715 heartbeat IPC: 0.14026 cumulative IPC: 0.16081 (Simulation time: 0 hr 14 min 47 sec) 
Heartbeat CPU  2 instructions:   97000002 cycles:  379283547 heartbeat IPC: 0.11805 cumulative IPC: 0.12901 (Simulation time: 0 hr 14 min 48 sec) 
Heartbeat CPU  0 instructions:   95000000 cycles:  380997984 heartbeat IPC: 0.11857 cumulative IPC: 0.12565 (Simulation time: 0 hr 14 min 50 sec) 
Heartbeat CPU  3 instructions:  114000003 cycles:  384460606 heartbeat IPC: 0.15531 cumulative IPC: 0.15452 (Simulation time: 0 hr 14 min 55 sec) 
Heartbeat CPU  1 instructions:  115000002 cycles:  385223754 heartbeat IPC: 0.14150 cumulative IPC: 0.16044 (Simulation time: 0 hr 14 min 56 sec) 
Heartbeat CPU  2 instructions:   98000003 cycles:  387524537 heartbeat IPC: 0.12134 cumulative IPC: 0.12884 (Simulation time: 0 hr 15 min 0 sec) 
Heartbeat CPU  0 instructions:   96000000 cycles:  389400398 heartbeat IPC: 0.11901 cumulative IPC: 0.12550 (Simulation time: 0 hr 15 min 2 sec) 
Heartbeat CPU  3 instructions:  115000002 cycles:  390873695 heartbeat IPC: 0.15593 cumulative IPC: 0.15455 (Simulation time: 0 hr 15 min 4 sec) 
Heartbeat CPU  1 instructions:  116000000 cycles:  392222564 heartbeat IPC: 0.14288 cumulative IPC: 0.16010 (Simulation time: 0 hr 15 min 6 sec) 
Heartbeat CPU  2 instructions:   99000001 cycles:  395872386 heartbeat IPC: 0.11979 cumulative IPC: 0.12864 (Simulation time: 0 hr 15 min 11 sec) 
Heartbeat CPU  3 instructions:  116000000 cycles:  397270909 heartbeat IPC: 0.15632 cumulative IPC: 0.15458 (Simulation time: 0 hr 15 min 13 sec) 
Heartbeat CPU  0 instructions:   97000000 cycles:  398070198 heartbeat IPC: 0.11534 cumulative IPC: 0.12527 (Simulation time: 0 hr 15 min 14 sec) 
Heartbeat CPU  1 instructions:  117000003 cycles:  399291263 heartbeat IPC: 0.14147 cumulative IPC: 0.15975 (Simulation time: 0 hr 15 min 16 sec) 
Heartbeat CPU  3 instructions:  117000001 cycles:  403692278 heartbeat IPC: 0.15573 cumulative IPC: 0.15460 (Simulation time: 0 hr 15 min 22 sec) 
*** Reached end of trace for Core: 2 Repeating trace: /data3/CLOUD9/traces/cloud9_phase2_core2.trace.xz
Heartbeat CPU  2 instructions:  100000000 cycles:  404216451 heartbeat IPC: 0.11985 cumulative IPC: 0.12845 (Simulation time: 0 hr 15 min 23 sec) 
Heartbeat CPU  1 instructions:  118000001 cycles:  406331967 heartbeat IPC: 0.14203 cumulative IPC: 0.15943 (Simulation time: 0 hr 15 min 26 sec) 
Heartbeat CPU  0 instructions:   98000003 cycles:  406546839 heartbeat IPC: 0.11797 cumulative IPC: 0.12511 (Simulation time: 0 hr 15 min 26 sec) 
Heartbeat CPU  3 instructions:  118000002 cycles:  410093481 heartbeat IPC: 0.15622 cumulative IPC: 0.15462 (Simulation time: 0 hr 15 min 31 sec) 
Heartbeat CPU  2 instructions:  101000002 cycles:  412380490 heartbeat IPC: 0.12249 cumulative IPC: 0.12832 (Simulation time: 0 hr 15 min 34 sec) 
Heartbeat CPU  1 instructions:  119000001 cycles:  413414462 heartbeat IPC: 0.14119 cumulative IPC: 0.15910 (Simulation time: 0 hr 15 min 35 sec) 
Heartbeat CPU  0 instructions:   99000003 cycles:  415090433 heartbeat IPC: 0.11705 cumulative IPC: 0.12493 (Simulation time: 0 hr 15 min 38 sec) 
Heartbeat CPU  3 instructions:  119000002 cycles:  416501025 heartbeat IPC: 0.15607 cumulative IPC: 0.15465 (Simulation time: 0 hr 15 min 40 sec) 
Heartbeat CPU  1 instructions:  120000000 cycles:  420524762 heartbeat IPC: 0.14064 cumulative IPC: 0.15877 (Simulation time: 0 hr 15 min 45 sec) 
Heartbeat CPU  2 instructions:  102000001 cycles:  420553653 heartbeat IPC: 0.12235 cumulative IPC: 0.12820 (Simulation time: 0 hr 15 min 45 sec) 
*** Reached end of trace for Core: 0 Repeating trace: /data3/CLOUD9/traces/cloud9_phase2_core0.trace.xz
Heartbeat CPU  0 instructions:  100000000 cycles:  422473673 heartbeat IPC: 0.13544 cumulative IPC: 0.12512 (Simulation time: 0 hr 15 min 48 sec) 
Heartbeat CPU  3 instructions:  120000000 cycles:  422935317 heartbeat IPC: 0.15542 cumulative IPC: 0.15466 (Simulation time: 0 hr 15 min 49 sec) 
Heartbeat CPU  1 instructions:  121000000 cycles:  427557405 heartbeat IPC: 0.14219 cumulative IPC: 0.15848 (Simulation time: 0 hr 15 min 55 sec) 
Heartbeat CPU  2 instructions:  103000003 cycles:  428756639 heartbeat IPC: 0.12191 cumulative IPC: 0.12807 (Simulation time: 0 hr 15 min 57 sec) 
Heartbeat CPU  3 instructions:  121000003 cycles:  429357705 heartbeat IPC: 0.15571 cumulative IPC: 0.15467 (Simulation time: 0 hr 15 min 58 sec) 
Heartbeat CPU  0 instructions:  101000000 cycles:  430806254 heartbeat IPC: 0.12001 cumulative IPC: 0.12502 (Simulation time: 0 hr 16 min 0 sec) 
Heartbeat CPU  1 instructions:  122000003 cycles:  434606988 heartbeat IPC: 0.14185 cumulative IPC: 0.15820 (Simulation time: 0 hr 16 min 5 sec) 
Heartbeat CPU  3 instructions:  122000002 cycles:  435777734 heartbeat IPC: 0.15576 cumulative IPC: 0.15469 (Simulation time: 0 hr 16 min 7 sec) 
Heartbeat CPU  2 instructions:  104000000 cycles:  436955125 heartbeat IPC: 0.12197 cumulative IPC: 0.12795 (Simulation time: 0 hr 16 min 8 sec) 
Heartbeat CPU  0 instructions:  102000002 cycles:  439147015 heartbeat IPC: 0.11989 cumulative IPC: 0.12492 (Simulation time: 0 hr 16 min 11 sec) 
Heartbeat CPU  1 instructions:  123000001 cycles:  441730150 heartbeat IPC: 0.14039 cumulative IPC: 0.15789 (Simulation time: 0 hr 16 min 15 sec) 
Heartbeat CPU  3 instructions:  123000001 cycles:  442212078 heartbeat IPC: 0.15542 cumulative IPC: 0.15470 (Simulation time: 0 hr 16 min 15 sec) 
Heartbeat CPU  2 instructions:  105000002 cycles:  445261947 heartbeat IPC: 0.12038 cumulative IPC: 0.12780 (Simulation time: 0 hr 16 min 20 sec) 
Heartbeat CPU  0 instructions:  103000002 cycles:  447578201 heartbeat IPC: 0.11861 cumulative IPC: 0.12479 (Simulation time: 0 hr 16 min 23 sec) 
Heartbeat CPU  3 instructions:  124000000 cycles:  448655564 heartbeat IPC: 0.15520 cumulative IPC: 0.15471 (Simulation time: 0 hr 16 min 24 sec) 
Heartbeat CPU  1 instructions:  124000000 cycles:  448825546 heartbeat IPC: 0.14094 cumulative IPC: 0.15761 (Simulation time: 0 hr 16 min 24 sec) 
Heartbeat CPU  2 instructions:  106000000 cycles:  453425454 heartbeat IPC: 0.12250 cumulative IPC: 0.12770 (Simulation time: 0 hr 16 min 31 sec) 
Heartbeat CPU  3 instructions:  125000000 cycles:  455066085 heartbeat IPC: 0.15599 cumulative IPC: 0.15473 (Simulation time: 0 hr 16 min 33 sec) 
Heartbeat CPU  1 instructions:  125000002 cycles:  455940783 heartbeat IPC: 0.14054 cumulative IPC: 0.15733 (Simulation time: 0 hr 16 min 34 sec) 
Heartbeat CPU  0 instructions:  104000000 cycles:  455972525 heartbeat IPC: 0.11913 cumulative IPC: 0.12468 (Simulation time: 0 hr 16 min 34 sec) 
Heartbeat CPU  3 instructions:  126000002 cycles:  461469593 heartbeat IPC: 0.15616 cumulative IPC: 0.15475 (Simulation time: 0 hr 16 min 42 sec) 
Heartbeat CPU  2 instructions:  107000001 cycles:  461673192 heartbeat IPC: 0.12125 cumulative IPC: 0.12758 (Simulation time: 0 hr 16 min 42 sec) 
Heartbeat CPU  1 instructions:  126000003 cycles:  464316578 heartbeat IPC: 0.11939 cumulative IPC: 0.15661 (Simulation time: 0 hr 16 min 46 sec) 
Heartbeat CPU  0 instructions:  105000003 cycles:  464323675 heartbeat IPC: 0.11974 cumulative IPC: 0.12459 (Simulation time: 0 hr 16 min 46 sec) 
Heartbeat CPU  3 instructions:  127000001 cycles:  467877362 heartbeat IPC: 0.15606 cumulative IPC: 0.15477 (Simulation time: 0 hr 16 min 51 sec) 
Heartbeat CPU  2 instructions:  108000000 cycles:  469912590 heartbeat IPC: 0.12137 cumulative IPC: 0.12747 (Simulation time: 0 hr 16 min 53 sec) 
Heartbeat CPU  1 instructions:  127000003 cycles:  471408999 heartbeat IPC: 0.14100 cumulative IPC: 0.15636 (Simulation time: 0 hr 16 min 56 sec) 
Heartbeat CPU  0 instructions:  106000003 cycles:  472738051 heartbeat IPC: 0.11884 cumulative IPC: 0.12448 (Simulation time: 0 hr 16 min 57 sec) 
Heartbeat CPU  3 instructions:  128000000 cycles:  474159785 heartbeat IPC: 0.15917 cumulative IPC: 0.15483 (Simulation time: 0 hr 16 min 59 sec) 
Heartbeat CPU  2 instructions:  109000001 cycles:  478343089 heartbeat IPC: 0.11862 cumulative IPC: 0.12730 (Simulation time: 0 hr 17 min 5 sec) 
Heartbeat CPU  1 instructions:  128000000 cycles:  478500096 heartbeat IPC: 0.14102 cumulative IPC: 0.15612 (Simulation time: 0 hr 17 min 5 sec) 
Heartbeat CPU  3 instructions:  129000000 cycles:  480583573 heartbeat IPC: 0.15567 cumulative IPC: 0.15484 (Simulation time: 0 hr 17 min 8 sec) 
Heartbeat CPU  0 instructions:  107000001 cycles:  481198386 heartbeat IPC: 0.11820 cumulative IPC: 0.12437 (Simulation time: 0 hr 17 min 9 sec) 
Heartbeat CPU  1 instructions:  129000002 cycles:  485564093 heartbeat IPC: 0.14156 cumulative IPC: 0.15590 (Simulation time: 0 hr 17 min 15 sec) 
Heartbeat CPU  2 instructions:  110000002 cycles:  486622176 heartbeat IPC: 0.12079 cumulative IPC: 0.12719 (Simulation time: 0 hr 17 min 17 sec) 
Heartbeat CPU  3 instructions:  130000000 cycles:  487000087 heartbeat IPC: 0.15585 cumulative IPC: 0.15486 (Simulation time: 0 hr 17 min 17 sec) 
Heartbeat CPU  0 instructions:  108000000 cycles:  489631597 heartbeat IPC: 0.11858 cumulative IPC: 0.12426 (Simulation time: 0 hr 17 min 21 sec) 
Heartbeat CPU  1 instructions:  130000003 cycles:  492661347 heartbeat IPC: 0.14090 cumulative IPC: 0.15567 (Simulation time: 0 hr 17 min 25 sec) 
Heartbeat CPU  3 instructions:  131000000 cycles:  493416339 heartbeat IPC: 0.15585 cumulative IPC: 0.15487 (Simulation time: 0 hr 17 min 26 sec) 
Heartbeat CPU  2 instructions:  111000000 cycles:  494970085 heartbeat IPC: 0.11979 cumulative IPC: 0.12705 (Simulation time: 0 hr 17 min 28 sec) 
Heartbeat CPU  0 instructions:  109000000 cycles:  498284994 heartbeat IPC: 0.11556 cumulative IPC: 0.12410 (Simulation time: 0 hr 17 min 33 sec) 
Heartbeat CPU  1 instructions:  131000002 cycles:  499734385 heartbeat IPC: 0.14138 cumulative IPC: 0.15546 (Simulation time: 0 hr 17 min 35 sec) 
Heartbeat CPU  3 instructions:  132000000 cycles:  499852214 heartbeat IPC: 0.15538 cumulative IPC: 0.15488 (Simulation time: 0 hr 17 min 35 sec) 
Heartbeat CPU  2 instructions:  112000000 cycles:  502847553 heartbeat IPC: 0.12694 cumulative IPC: 0.12705 (Simulation time: 0 hr 17 min 39 sec) 
Heartbeat CPU  3 instructions:  133000000 cycles:  506281719 heartbeat IPC: 0.15553 cumulative IPC: 0.15489 (Simulation time: 0 hr 17 min 45 sec) 
Heartbeat CPU  1 instructions:  132000000 cycles:  506762748 heartbeat IPC: 0.14228 cumulative IPC: 0.15527 (Simulation time: 0 hr 17 min 45 sec) 
Heartbeat CPU  0 instructions:  110000000 cycles:  506765254 heartbeat IPC: 0.11792 cumulative IPC: 0.12399 (Simulation time: 0 hr 17 min 45 sec) 
Heartbeat CPU  2 instructions:  113000001 cycles:  507247380 heartbeat IPC: 0.22728 cumulative IPC: 0.12796 (Simulation time: 0 hr 17 min 46 sec) 
Heartbeat CPU  2 instructions:  114000003 cycles:  512568317 heartbeat IPC: 0.18794 cumulative IPC: 0.12861 (Simulation time: 0 hr 17 min 54 sec) 
Heartbeat CPU  3 instructions:  134000000 cycles:  512731408 heartbeat IPC: 0.15505 cumulative IPC: 0.15489 (Simulation time: 0 hr 17 min 54 sec) 
Heartbeat CPU  1 instructions:  133000002 cycles:  513864210 heartbeat IPC: 0.14082 cumulative IPC: 0.15506 (Simulation time: 0 hr 17 min 56 sec) 
Heartbeat CPU  0 instructions:  111000000 cycles:  515278743 heartbeat IPC: 0.11746 cumulative IPC: 0.12388 (Simulation time: 0 hr 17 min 58 sec) 
Heartbeat CPU  3 instructions:  135000003 cycles:  519199611 heartbeat IPC: 0.15460 cumulative IPC: 0.15488 (Simulation time: 0 hr 18 min 3 sec) 
Heartbeat CPU  2 instructions:  115000003 cycles:  520747727 heartbeat IPC: 0.12226 cumulative IPC: 0.12851 (Simulation time: 0 hr 18 min 5 sec) 
Heartbeat CPU  1 instructions:  134000002 cycles:  520985862 heartbeat IPC: 0.14042 cumulative IPC: 0.15485 (Simulation time: 0 hr 18 min 6 sec) 
Heartbeat CPU  0 instructions:  112000000 cycles:  522488049 heartbeat IPC: 0.13871 cumulative IPC: 0.12410 (Simulation time: 0 hr 18 min 8 sec) 
Heartbeat CPU  3 instructions:  136000000 cycles:  525704446 heartbeat IPC: 0.15373 cumulative IPC: 0.15487 (Simulation time: 0 hr 18 min 13 sec) 
Heartbeat CPU  0 instructions:  113000003 cycles:  527141597 heartbeat IPC: 0.21489 cumulative IPC: 0.12493 (Simulation time: 0 hr 18 min 15 sec) 
Heartbeat CPU  1 instructions:  135000000 cycles:  528113566 heartbeat IPC: 0.14030 cumulative IPC: 0.15465 (Simulation time: 0 hr 18 min 17 sec) 
Heartbeat CPU  2 instructions:  116000000 cycles:  528878849 heartbeat IPC: 0.12298 cumulative IPC: 0.12842 (Simulation time: 0 hr 18 min 18 sec) 
Heartbeat CPU  3 instructions:  137000003 cycles:  532192151 heartbeat IPC: 0.15414 cumulative IPC: 0.15486 (Simulation time: 0 hr 18 min 23 sec) 
Heartbeat CPU  0 instructions:  114000002 cycles:  533504083 heartbeat IPC: 0.15717 cumulative IPC: 0.12534 (Simulation time: 0 hr 18 min 25 sec) 
Heartbeat CPU  1 instructions:  136000000 cycles:  535288080 heartbeat IPC: 0.13938 cumulative IPC: 0.15443 (Simulation time: 0 hr 18 min 27 sec) 
Heartbeat CPU  2 instructions:  117000001 cycles:  537052711 heartbeat IPC: 0.12234 cumulative IPC: 0.12832 (Simulation time: 0 hr 18 min 30 sec) 
Heartbeat CPU  3 instructions:  138000003 cycles:  538712896 heartbeat IPC: 0.15336 cumulative IPC: 0.15484 (Simulation time: 0 hr 18 min 32 sec) 
Heartbeat CPU  1 instructions:  137000000 cycles:  541152077 heartbeat IPC: 0.17053 cumulative IPC: 0.15462 (Simulation time: 0 hr 18 min 36 sec) 
Heartbeat CPU  0 instructions:  115000000 cycles:  541723679 heartbeat IPC: 0.12166 cumulative IPC: 0.12528 (Simulation time: 0 hr 18 min 37 sec) 
Heartbeat CPU  3 instructions:  139000001 cycles:  545210327 heartbeat IPC: 0.15391 cumulative IPC: 0.15483 (Simulation time: 0 hr 18 min 42 sec) 
[...]
Core_0_L2C_prefetch_dropped 0
Core_0_L2C_prefetch_issued 1448048
Core_0_L2C_prefetch_filled 948395
Core_0_L2C_prefetch_useful 697835
Core_0_L2C_prefetch_useless 249590
Core_0_L2C_prefetch_late 946
Core_0_L2C_average_miss_latency 137.82542

Core_0_L2C_rq_access 1209493
Core_0_L2C_rq_forward 0
Core_0_L2C_rq_merged 0
Core_0_L2C_rq_to_cache 1209490
Core_0_L2C_rq_full 0

Core_0_L2C_wq_access 720098
Core_0_L2C_wq_forward 3
Core_0_L2C_wq_merged 0
Core_0_L2C_wq_to_cache 720098
Core_0_L2C_wq_full 0

Core_0_L2C_pq_access 1448048
Core_0_L2C_pq_forward 0
Core_0_L2C_pq_merged 58
Core_0_L2C_pq_to_cache 1447990
Core_0_L2C_pq_full 0

Core_0_L2C_acc_epochs 152591
Core_0_L2C_acc_level_0 6695
Core_0_L2C_acc_level_1 3198
Core_0_L2C_acc_level_2 3464
Core_0_L2C_acc_level_3 4551
Core_0_L2C_acc_level_4 6982
Core_0_L2C_acc_level_5 11825
Core_0_L2C_acc_level_6 15974
Core_0_L2C_acc_level_7 17625
Core_0_L2C_acc_level_8 17019
Core_0_L2C_acc_level_9 65258

Core_0_LLC_total_access 1687110
Core_0_LLC_total_hit 1305665
Core_0_LLC_total_miss 381445
Core_0_LLC_loads 373541
Core_0_LLC_load_hit 279469
Core_0_LLC_load_miss 94072
Core_0_LLC_RFOs 41144
Core_0_LLC_RFO_hit 32253
Core_0_LLC_RFO_miss 8891
Core_0_LLC_prefetches 722670
Core_0_LLC_prefetch_hit 488715
Core_0_LLC_prefetch_miss 233955
Core_0_LLC_writebacks 549755
Core_0_LLC_writeback_hit 505228
Core_0_LLC_writeback_miss 44527
Core_0_LLC_prefetch_requested 0
Core_0_LLC_prefetch_dropped 0
Core_0_LLC_prefetch_issued 0
Core_0_LLC_prefetch_filled 1349008
Core_0_LLC_prefetch_useful 77529
Core_0_LLC_prefetch_useless 1238619
Core_0_LLC_prefetch_late 0
Core_0_LLC_average_miss_latency 901.10906

Core_0_LLC_rq_access 1771768
Core_0_LLC_rq_forward 0
Core_0_LLC_rq_merged 0
Core_0_LLC_rq_to_cache 1771760
Core_0_LLC_rq_full 0

Core_0_LLC_wq_access 1941023
Core_0_LLC_wq_forward 10
Core_0_LLC_wq_merged 0
Core_0_LLC_wq_to_cache 1941023
Core_0_LLC_wq_full 0

Core_0_LLC_pq_access 2994275
Core_0_LLC_pq_forward 0
Core_0_LLC_pq_merged 0
Core_0_LLC_pq_to_cache 2994273
Core_0_LLC_pq_full 0

Core_0_LLC_acc_epochs 1192507
Core_0_LLC_acc_level_0 1121552
Core_0_LLC_acc_level_1 29458
Core_0_LLC_acc_level_2 20155
Core_0_LLC_acc_level_3 3902
Core_0_LLC_acc_level_4 1111
Core_0_LLC_acc_level_5 12677
Core_0_LLC_acc_level_6 1322
Core_0_LLC_acc_level_7 795
Core_0_LLC_acc_level_8 253
Core_0_LLC_acc_level_9 1282

Core_0_major_page_fault 0
Core_0_minor_page_fault 1890

Core_1_instructions 150000000
Core_1_cycles 953509313
Core_1_IPC 0.15731

Core_1_branch_prediction_accuracy 98.92903
Core_1_branch_MPKI 2.16099
Core_1_average_ROB_occupancy_at_mispredict 174.22136

Core_1_L1D_total_access 24349883
Core_1_L1D_total_hit 23319615
Core_1_L1D_total_miss 1030268
Core_1_L1D_loads 14504720
Core_1_L1D_load_hit 13650204
Core_1_L1D_load_miss 854516
Core_1_L1D_RFOs 9845163
Core_1_L1D_RFO_hit 9669411
Core_1_L1D_RFO_miss 175752
Core_1_L1D_prefetches 0
Core_1_L1D_prefetch_hit 0
Core_1_L1D_prefetch_miss 0
Core_1_L1D_writebacks 0
Core_1_L1D_writeback_hit 0
Core_1_L1D_writeback_miss 0
Core_1_L1D_prefetch_requested 0
Core_1_L1D_prefetch_dropped 0
Core_1_L1D_prefetch_issued 0
Core_1_L1D_prefetch_filled 0
Core_1_L1D_prefetch_useful 0
Core_1_L1D_prefetch_useless 0
Core_1_L1D_prefetch_late 0
Core_1_L1D_average_miss_latency 187.71184

Core_1_L1D_rq_access 26318976
Core_1_L1D_rq_forward 0
Core_1_L1D_rq_merged 8310771
Core_1_L1D_rq_to_cache 18007539
Core_1_L1D_rq_full 0

Core_1_L1D_wq_access 12959245
Core_1_L1D_wq_forward 666
Core_1_L1D_wq_merged 194817
Core_1_L1D_wq_to_cache 12764428
Core_1_L1D_wq_full 11903

Core_1_L1D_pq_access 0
Core_1_L1D_pq_forward 0
Core_1_L1D_pq_merged 0
Core_1_L1D_pq_to_cache 0
Core_1_L1D_pq_full 0

Core_1_L1D_acc_epochs 222124
Core_1_L1D_acc_level_0 222124
Core_1_L1D_acc_level_1 0
Core_1_L1D_acc_level_2 0
Core_1_L1D_acc_level_3 0
Core_1_L1D_acc_level_4 0
Core_1_L1D_acc_level_5 0
Core_1_L1D_acc_level_6 0
Core_1_L1D_acc_level_7 0
Core_1_L1D_acc_level_8 0
Core_1_L1D_acc_level_9 0

Core_1_L1I_total_access 38302925
Core_1_L1I_total_hit 38181285
Core_1_L1I_total_miss 121640
Core_1_L1I_loads 38302925
Core_1_L1I_load_hit 38181285
Core_1_L1I_load_miss 121640
Core_1_L1I_RFOs 0
Core_1_L1I_RFO_hit 0
Core_1_L1I_RFO_miss 0
Core_1_L1I_prefetches 0
Core_1_L1I_prefetch_hit 0
Core_1_L1I_prefetch_miss 0
Core_1_L1I_writebacks 0
Core_1_L1I_writeback_hit 0
Core_1_L1I_writeback_miss 0
Core_1_L1I_prefetch_requested 0
Core_1_L1I_prefetch_dropped 0
Core_1_L1I_prefetch_issued 0
Core_1_L1I_prefetch_filled 0
Core_1_L1I_prefetch_useful 0
Core_1_L1I_prefetch_useless 0
Core_1_L1I_prefetch_late 0
Core_1_L1I_average_miss_latency 168.97445

Core_1_L1I_rq_access 184887460
Core_1_L1I_rq_forward 0
Core_1_L1I_rq_merged 137929857
Core_1_L1I_rq_to_cache 46957603
Core_1_L1I_rq_full 0

Core_1_L1I_wq_access 0
Core_1_L1I_wq_forward 0
Core_1_L1I_wq_merged 0
Core_1_L1I_wq_to_cache 0
Core_1_L1I_wq_full 0

Core_1_L1I_pq_access 0
Core_1_L1I_pq_forward 0
Core_1_L1I_pq_merged 0
Core_1_L1I_pq_to_cache 0
Core_1_L1I_pq_full 0

Core_1_L1I_acc_epochs 222124
Core_1_L1I_acc_level_0 222124
Core_1_L1I_acc_level_1 0
Core_1_L1I_acc_level_2 0
Core_1_L1I_acc_level_3 0
Core_1_L1I_acc_level_4 0
Core_1_L1I_acc_level_5 0
Core_1_L1I_acc_level_6 0
Core_1_L1I_acc_level_7 0
Core_1_L1I_acc_level_8 0
Core_1_L1I_acc_level_9 0

Core_1_L2C_total_access 2450485
Core_1_L2C_total_hit 1396398
Core_1_L2C_total_miss 1054087
Core_1_L2C_loads 976143
Core_1_L2C_load_hit 520367
Core_1_L2C_load_miss 455776
Core_1_L2C_RFOs 175742
Core_1_L2C_RFO_hit 52670
Core_1_L2C_RFO_miss 123072
Core_1_L2C_prefetches 692320
Core_1_L2C_prefetch_hit 220390
Core_1_L2C_prefetch_miss 471930
Core_1_L2C_writebacks 606280
Core_1_L2C_writeback_hit 602971
Core_1_L2C_writeback_miss 3309
Core_1_L2C_prefetch_requested 993713
Core_1_L2C_prefetch_dropped 0
Core_1_L2C_prefetch_issued 993713
Core_1_L2C_prefetch_filled 680478
Core_1_L2C_prefetch_useful 285882
Core_1_L2C_prefetch_useless 394090
Core_1_L2C_prefetch_late 14139
Core_1_L2C_average_miss_latency 220.88306

Core_1_L2C_rq_access 1448351
Core_1_L2C_rq_forward 0
Core_1_L2C_rq_merged 0
Core_1_L2C_rq_to_cache 1448317
Core_1_L2C_rq_full 0

Core_1_L2C_wq_access 752381
Core_1_L2C_wq_forward 34
Core_1_L2C_wq_merged 0
Core_1_L2C_wq_to_cache 752381
Core_1_L2C_wq_full 0

Core_1_L2C_pq_access 993713
Core_1_L2C_pq_forward 0
Core_1_L2C_pq_merged 220
Core_1_L2C_pq_to_cache 993493
Core_1_L2C_pq_full 0

Core_1_L2C_acc_epochs 222124
Core_1_L2C_acc_level_0 90178
Core_1_L2C_acc_level_1 28848
Core_1_L2C_acc_level_2 25522
Core_1_L2C_acc_level_3 19141
Core_1_L2C_acc_level_4 12947
Core_1_L2C_acc_level_5 17175
Core_1_L2C_acc_level_6 8064
Core_1_L2C_acc_level_7 5840
Core_1_L2C_acc_level_8 3809
Core_1_L2C_acc_level_9 10600

Core_1_LLC_total_access 1534992
Core_1_LLC_total_hit 745661
Core_1_LLC_total_miss 789331
Core_1_LLC_loads 443192
Core_1_LLC_load_hit 171315
Core_1_LLC_load_miss 271877
Core_1_LLC_RFOs 122821
Core_1_LLC_RFO_hit 15141
Core_1_LLC_RFO_miss 107680
Core_1_LLC_prefetches 484764
Core_1_LLC_prefetch_hit 163335
Core_1_LLC_prefetch_miss 321429
Core_1_LLC_writebacks 484215
Core_1_LLC_writeback_hit 395870
Core_1_LLC_writeback_miss 88345
Core_1_LLC_prefetch_requested 0
Core_1_LLC_prefetch_dropped 0
Core_1_LLC_prefetch_issued 0
Core_1_LLC_prefetch_filled 1349008
Core_1_LLC_prefetch_useful 77529
Core_1_LLC_prefetch_useless 1238619
Core_1_LLC_prefetch_late 0
Core_1_LLC_average_miss_latency 435.46186

Core_1_LLC_rq_access 1771768
Core_1_LLC_rq_forward 0
Core_1_LLC_rq_merged 0
Core_1_LLC_rq_to_cache 1771760
Core_1_LLC_rq_full 0

Core_1_LLC_wq_access 1941023
Core_1_LLC_wq_forward 10
Core_1_LLC_wq_merged 0
Core_1_LLC_wq_to_cache 1941023
Core_1_LLC_wq_full 0

Core_1_LLC_pq_access 2994275
Core_1_LLC_pq_forward 0
Core_1_LLC_pq_merged 0
Core_1_LLC_pq_to_cache 2994273
Core_1_LLC_pq_full 0

Core_1_LLC_acc_epochs 1192507
Core_1_LLC_acc_level_0 1121552
Core_1_LLC_acc_level_1 29458
Core_1_LLC_acc_level_2 20155
Core_1_LLC_acc_level_3 3902
Core_1_LLC_acc_level_4 1111
Core_1_LLC_acc_level_5 12677
Core_1_LLC_acc_level_6 1322
Core_1_LLC_acc_level_7 795
Core_1_LLC_acc_level_8 253
Core_1_LLC_acc_level_9 1282

Core_1_major_page_fault 0
Core_1_minor_page_fault 10522

Core_2_instructions 150000001
Core_2_cycles 1169403485
Core_2_IPC 0.12827

Core_2_branch_prediction_accuracy 99.42886
Core_2_branch_MPKI 1.30184
Core_2_average_ROB_occupancy_at_mispredict 134.70201

Core_2_L1D_total_access 24707214
Core_2_L1D_total_hit 23477388
Core_2_L1D_total_miss 1229826
Core_2_L1D_loads 14471441
Core_2_L1D_load_hit 13298605
Core_2_L1D_load_miss 1172836
Core_2_L1D_RFOs 10235773
Core_2_L1D_RFO_hit 10178783
Core_2_L1D_RFO_miss 56990
Core_2_L1D_prefetches 0
Core_2_L1D_prefetch_hit 0
Core_2_L1D_prefetch_miss 0
Core_2_L1D_writebacks 0
Core_2_L1D_writeback_hit 0
Core_2_L1D_writeback_miss 0
Core_2_L1D_prefetch_requested 0
Core_2_L1D_prefetch_dropped 0
Core_2_L1D_prefetch_issued 0
Core_2_L1D_prefetch_filled 0
Core_2_L1D_prefetch_useful 0
Core_2_L1D_prefetch_useless 0
Core_2_L1D_prefetch_late 0
Core_2_L1D_average_miss_latency 115.47084

Core_2_L1D_rq_access 21950901
Core_2_L1D_rq_forward 0
Core_2_L1D_rq_merged 7097284
Core_2_L1D_rq_to_cache 14853609
Core_2_L1D_rq_full 0

Core_2_L1D_wq_access 11587982
Core_2_L1D_wq_forward 8
Core_2_L1D_wq_merged 856370
Core_2_L1D_wq_to_cache 10731612
Core_2_L1D_wq_full 16412

Core_2_L1D_pq_access 0
Core_2_L1D_pq_forward 0
Core_2_L1D_pq_merged 0
Core_2_L1D_pq_to_cache 0
Core_2_L1D_pq_full 0

Core_2_L1D_acc_epochs 158210
Core_2_L1D_acc_level_0 158210
Core_2_L1D_acc_level_1 0
Core_2_L1D_acc_level_2 0
Core_2_L1D_acc_level_3 0
Core_2_L1D_acc_level_4 0
Core_2_L1D_acc_level_5 0
Core_2_L1D_acc_level_6 0
Core_2_L1D_acc_level_7 0
Core_2_L1D_acc_level_8 0
Core_2_L1D_acc_level_9 0

Core_2_L1I_total_access 41280861
Core_2_L1I_total_hit 41268464
Core_2_L1I_total_miss 12397
Core_2_L1I_loads 41280861
Core_2_L1I_load_hit 41268464
Core_2_L1I_load_miss 12397
Core_2_L1I_RFOs 0
Core_2_L1I_RFO_hit 0
Core_2_L1I_RFO_miss 0
Core_2_L1I_prefetches 0
Core_2_L1I_prefetch_hit 0
Core_2_L1I_prefetch_miss 0
Core_2_L1I_writebacks 0
Core_2_L1I_writeback_hit 0
Core_2_L1I_writeback_miss 0
Core_2_L1I_prefetch_requested 0
Core_2_L1I_prefetch_dropped 0
Core_2_L1I_prefetch_issued 0
Core_2_L1I_prefetch_filled 0
Core_2_L1I_prefetch_useful 0
Core_2_L1I_prefetch_useless 0
Core_2_L1I_prefetch_late 0
Core_2_L1I_average_miss_latency 161.24756

Core_2_L1I_rq_access 153507336
Core_2_L1I_rq_forward 0
Core_2_L1I_rq_merged 111226675
Core_2_L1I_rq_to_cache 42280661
Core_2_L1I_rq_full 0

Core_2_L1I_wq_access 0
Core_2_L1I_wq_forward 0
Core_2_L1I_wq_merged 0
Core_2_L1I_wq_to_cache 0
Core_2_L1I_wq_full 0

Core_2_L1I_pq_access 0
Core_2_L1I_pq_forward 0
Core_2_L1I_pq_merged 0
Core_2_L1I_pq_to_cache 0
Core_2_L1I_pq_full 0

Core_2_L1I_acc_epochs 158210
Core_2_L1I_acc_level_0 158210
Core_2_L1I_acc_level_1 0
Core_2_L1I_acc_level_2 0
Core_2_L1I_acc_level_3 0
Core_2_L1I_acc_level_4 0
Core_2_L1I_acc_level_5 0
Core_2_L1I_acc_level_6 0
Core_2_L1I_acc_level_7 0
Core_2_L1I_acc_level_8 0
Core_2_L1I_acc_level_9 0

Core_2_L2C_total_access 3092763
Core_2_L2C_total_hit 1931793
Core_2_L2C_total_miss 1160970
Core_2_L2C_loads 1185232
Core_2_L2C_load_hit 785154
Core_2_L2C_load_miss 400078
Core_2_L2C_RFOs 56982
Core_2_L2C_RFO_hit 12892
Core_2_L2C_RFO_miss 44090
Core_2_L2C_prefetches 1121169
Core_2_L2C_prefetch_hit 410269
Core_2_L2C_prefetch_miss 710900
Core_2_L2C_writebacks 729380
Core_2_L2C_writeback_hit 723478
Core_2_L2C_writeback_miss 5902
Core_2_L2C_prefetch_requested 1511461
Core_2_L2C_prefetch_dropped 0
Core_2_L2C_prefetch_issued 1511461
Core_2_L2C_prefetch_filled 952270
Core_2_L2C_prefetch_useful 670028
Core_2_L2C_prefetch_useless 281618
Core_2_L2C_prefetch_late 1160
Core_2_L2C_average_miss_latency 132.25450

Core_2_L2C_rq_access 1271005
Core_2_L2C_rq_forward 0
Core_2_L2C_rq_merged 0
Core_2_L2C_rq_to_cache 1270996
Core_2_L2C_rq_full 0

Core_2_L2C_wq_access 745655
Core_2_L2C_wq_forward 9
Core_2_L2C_wq_merged 0
Core_2_L2C_wq_to_cache 745655
Core_2_L2C_wq_full 0

Core_2_L2C_pq_access 1511461
Core_2_L2C_pq_forward 0
Core_2_L2C_pq_merged 71
Core_2_L2C_pq_to_cache 1511390
Core_2_L2C_pq_full 0

Core_2_L2C_acc_epochs 158210
Core_2_L2C_acc_level_0 6683
Core_2_L2C_acc_level_1 3168
Core_2_L2C_acc_level_2 3801
Core_2_L2C_acc_level_3 5515
Core_2_L2C_acc_level_4 9076
Core_2_L2C_acc_level_5 14672
Core_2_L2C_acc_level_6 17771
Core_2_L2C_acc_level_7 18255
Core_2_L2C_acc_level_8 16755
Core_2_L2C_acc_level_9 62514

Core_2_LLC_total_access 1719043
Core_2_LLC_total_hit 1355938
Core_2_LLC_total_miss 363105
Core_2_LLC_loads 398974
Core_2_LLC_load_hit 314978
Core_2_LLC_load_miss 83996
Core_2_LLC_RFOs 44082
Core_2_LLC_RFO_hit 35091
Core_2_LLC_RFO_miss 8991
Core_2_LLC_prefetches 712006
Core_2_LLC_prefetch_hit 483161
Core_2_LLC_prefetch_miss 228845
Core_2_LLC_writebacks 563981
Core_2_LLC_writeback_hit 522708
Core_2_LLC_writeback_miss 41273
Core_2_LLC_prefetch_requested 0
Core_2_LLC_prefetch_dropped 0
Core_2_LLC_prefetch_issued 0
Core_2_LLC_prefetch_filled 1349008
Core_2_LLC_prefetch_useful 77529
Core_2_LLC_prefetch_useless 1238619
Core_2_LLC_prefetch_late 0
Core_2_LLC_average_miss_latency 946.62300

Core_2_LLC_rq_access 1771768
Core_2_LLC_rq_forward 0
Core_2_LLC_rq_merged 0
Core_2_LLC_rq_to_cache 1771760
Core_2_LLC_rq_full 0

Core_2_LLC_wq_access 1941023
Core_2_LLC_wq_forward 10
Core_2_LLC_wq_merged 0
Core_2_LLC_wq_to_cache 1941023
Core_2_LLC_wq_full 0

Core_2_LLC_pq_access 2994275
Core_2_LLC_pq_forward 0
Core_2_LLC_pq_merged 0
Core_2_LLC_pq_to_cache 2994273
Core_2_LLC_pq_full 0

Core_2_LLC_acc_epochs 1192507
Core_2_LLC_acc_level_0 1121552
Core_2_LLC_acc_level_1 29458
Core_2_LLC_acc_level_2 20155
Core_2_LLC_acc_level_3 3902
Core_2_LLC_acc_level_4 1111
Core_2_LLC_acc_level_5 12677
Core_2_LLC_acc_level_6 1322
Core_2_LLC_acc_level_7 795
Core_2_LLC_acc_level_8 253
Core_2_LLC_acc_level_9 1282

Core_2_major_page_fault 0
Core_2_minor_page_fault 1756

Core_3_instructions 150000000
Core_3_cycles 971649416
Core_3_IPC 0.15438

Core_3_branch_prediction_accuracy 99.56464
Core_3_branch_MPKI 0.90200
Core_3_average_ROB_occupancy_at_mispredict 219.93673

Core_3_L1D_total_access 23347479
Core_3_L1D_total_hit 22969232
Core_3_L1D_total_miss 378247
Core_3_L1D_loads 13924975
Core_3_L1D_load_hit 13551816
Core_3_L1D_load_miss 373159
Core_3_L1D_RFOs 9422504
Core_3_L1D_RFO_hit 9417416
Core_3_L1D_RFO_miss 5088
Core_3_L1D_prefetches 0
Core_3_L1D_prefetch_hit 0
Core_3_L1D_prefetch_miss 0
Core_3_L1D_writebacks 0
Core_3_L1D_writeback_hit 0
Core_3_L1D_writeback_miss 0
Core_3_L1D_prefetch_requested 0
Core_3_L1D_prefetch_dropped 0
Core_3_L1D_prefetch_issued 0
Core_3_L1D_prefetch_filled 0
Core_3_L1D_prefetch_useful 0
Core_3_L1D_prefetch_useless 0
Core_3_L1D_prefetch_late 0
Core_3_L1D_average_miss_latency 143.76285

Core_3_L1D_rq_access 25334354
Core_3_L1D_rq_forward 0
Core_3_L1D_rq_merged 8103999
Core_3_L1D_rq_to_cache 17229968
Core_3_L1D_rq_full 0

Core_3_L1D_wq_access 11863220
Core_3_L1D_wq_forward 387
Core_3_L1D_wq_merged 196558
Core_3_L1D_wq_to_cache 11666662
Core_3_L1D_wq_full 0

Core_3_L1D_pq_access 0
Core_3_L1D_pq_forward 0
Core_3_L1D_pq_merged 0
Core_3_L1D_pq_to_cache 0
Core_3_L1D_pq_full 0

Core_3_L1D_acc_epochs 191629
Core_3_L1D_acc_level_0 191629
Core_3_L1D_acc_level_1 0
Core_3_L1D_acc_level_2 0
Core_3_L1D_acc_level_3 0
Core_3_L1D_acc_level_4 0
Core_3_L1D_acc_level_5 0
Core_3_L1D_acc_level_6 0
Core_3_L1D_acc_level_7 0
Core_3_L1D_acc_level_8 0
Core_3_L1D_acc_level_9 0

Core_3_L1I_total_access 40934723
Core_3_L1I_total_hit 40931050
Core_3_L1I_total_miss 3673
Core_3_L1I_loads 40934723
Core_3_L1I_load_hit 40931050
Core_3_L1I_load_miss 3673
Core_3_L1I_RFOs 0
Core_3_L1I_RFO_hit 0
Core_3_L1I_RFO_miss 0
Core_3_L1I_prefetches 0
Core_3_L1I_prefetch_hit 0
Core_3_L1I_prefetch_miss 0
Core_3_L1I_writebacks 0
Core_3_L1I_writeback_hit 0
Core_3_L1I_writeback_miss 0
Core_3_L1I_prefetch_requested 0
Core_3_L1I_prefetch_dropped 0
Core_3_L1I_prefetch_issued 0
Core_3_L1I_prefetch_filled 0
Core_3_L1I_prefetch_useful 0
Core_3_L1I_prefetch_useless 0
Core_3_L1I_prefetch_late 0
Core_3_L1I_average_miss_latency 190.25402

Core_3_L1I_rq_access 185227968
Core_3_L1I_rq_forward 0
Core_3_L1I_rq_merged 134680327
Core_3_L1I_rq_to_cache 50547641
Core_3_L1I_rq_full 0

Core_3_L1I_wq_access 0
Core_3_L1I_wq_forward 0
Core_3_L1I_wq_merged 0
Core_3_L1I_wq_to_cache 0
Core_3_L1I_wq_full 0

Core_3_L1I_pq_access 0
Core_3_L1I_pq_forward 0
Core_3_L1I_pq_merged 0
Core_3_L1I_pq_to_cache 0
Core_3_L1I_pq_full 0

Core_3_L1I_acc_epochs 191629
Core_3_L1I_acc_level_0 191629
Core_3_L1I_acc_level_1 0
Core_3_L1I_acc_level_2 0
Core_3_L1I_acc_level_3 0
Core_3_L1I_acc_level_4 0
Core_3_L1I_acc_level_5 0
Core_3_L1I_acc_level_6 0
Core_3_L1I_acc_level_7 0
Core_3_L1I_acc_level_8 0
Core_3_L1I_acc_level_9 0

Core_3_L2C_total_access 904410
Core_3_L2C_total_hit 466399
Core_3_L2C_total_miss 438011
Core_3_L2C_loads 376831
Core_3_L2C_load_hit 201309
Core_3_L2C_load_miss 175522
Core_3_L2C_RFOs 5087
Core_3_L2C_RFO_hit 2455
Core_3_L2C_RFO_miss 2632
Core_3_L2C_prefetches 327804
Core_3_L2C_prefetch_hit 69150
Core_3_L2C_prefetch_miss 258654
Core_3_L2C_writebacks 194688
Core_3_L2C_writeback_hit 193485
Core_3_L2C_writeback_miss 1203
Core_3_L2C_prefetch_requested 500640
Core_3_L2C_prefetch_dropped 0
Core_3_L2C_prefetch_issued 500640
Core_3_L2C_prefetch_filled 396298
Core_3_L2C_prefetch_useful 263131
Core_3_L2C_prefetch_useless 132310
Core_3_L2C_prefetch_late 589
Core_3_L2C_average_miss_latency 211.92251

Core_3_L2C_rq_access 458557
Core_3_L2C_rq_forward 0
Core_3_L2C_rq_merged 0
Core_3_L2C_rq_to_cache 458554
Core_3_L2C_rq_full 0

Core_3_L2C_wq_access 228605
Core_3_L2C_wq_forward 3
Core_3_L2C_wq_merged 0
Core_3_L2C_wq_to_cache 228605
Core_3_L2C_wq_full 0

Core_3_L2C_pq_access 500640
Core_3_L2C_pq_forward 0
Core_3_L2C_pq_merged 72
Core_3_L2C_pq_to_cache 500568
Core_3_L2C_pq_full 0

Core_3_L2C_acc_epochs 191629
Core_3_L2C_acc_level_0 28300
Core_3_L2C_acc_level_1 35650
Core_3_L2C_acc_level_2 29922
Core_3_L2C_acc_level_3 20034
Core_3_L2C_acc_level_4 15172
Core_3_L2C_acc_level_5 18156
Core_3_L2C_acc_level_6 9729
Core_3_L2C_acc_level_7 8793
Core_3_L2C_acc_level_8 6618
Core_3_L2C_acc_level_9 19255

Core_3_LLC_total_access 622829
Core_3_LLC_total_hit 305450
Core_3_LLC_total_miss 317379
Core_3_LLC_loads 174989
Core_3_LLC_load_hit 78602
Core_3_LLC_load_miss 96387
Core_3_LLC_RFOs 2627
Core_3_LLC_RFO_hit 1408
Core_3_LLC_RFO_miss 1219
Core_3_LLC_prefetches 259191
Core_3_LLC_prefetch_hit 96190
Core_3_LLC_prefetch_miss 163001
Core_3_LLC_writebacks 186022
Core_3_LLC_writeback_hit 129250
Core_3_LLC_writeback_miss 56772
Core_3_LLC_prefetch_requested 0
Core_3_LLC_prefetch_dropped 0
Core_3_LLC_prefetch_issued 0
Core_3_LLC_prefetch_filled 1349008
Core_3_LLC_prefetch_useful 77529
Core_3_LLC_prefetch_useless 1238619
Core_3_LLC_prefetch_late 0
Core_3_LLC_average_miss_latency 1083.00658

Core_3_LLC_rq_access 1771768
Core_3_LLC_rq_forward 0
Core_3_LLC_rq_merged 0
Core_3_LLC_rq_to_cache 1771760
Core_3_LLC_rq_full 0

Core_3_LLC_wq_access 1941023
Core_3_LLC_wq_forward 10
Core_3_LLC_wq_merged 0
Core_3_LLC_wq_to_cache 1941023
Core_3_LLC_wq_full 0

Core_3_LLC_pq_access 2994275
Core_3_LLC_pq_forward 0
Core_3_LLC_pq_merged 0
Core_3_LLC_pq_to_cache 2994273
Core_3_LLC_pq_full 0

Core_3_LLC_acc_epochs 1192507
Core_3_LLC_acc_level_0 1121552
Core_3_LLC_acc_level_1 29458
Core_3_LLC_acc_level_2 20155
Core_3_LLC_acc_level_3 3902
Core_3_LLC_acc_level_4 1111
Core_3_LLC_acc_level_5 12677
Core_3_LLC_acc_level_6 1322
Core_3_LLC_acc_level_7 795
Core_3_LLC_acc_level_8 253
Core_3_LLC_acc_level_9 1282

Core_3_major_page_fault 0
Core_3_minor_page_fault 2150

Channel_0_RQ_row_buffer_hit 62916
Channel_0_RQ_row_buffer_miss 836932
Channel_0_WQ_row_buffer_hit 23195
Channel_0_WQ_row_buffer_miss 373863
Channel_0_WQ_full 0
Channel_0_dbus_congested 173600

Channel_1_RQ_row_buffer_hit 62935
Channel_1_RQ_row_buffer_miss 835968
Channel_1_WQ_row_buffer_hit 23070
Channel_1_WQ_row_buffer_miss 374046
Channel_1_WQ_full 0
Channel_1_dbus_congested 173215

avg_congested_cycle 9

DRAM_bw_pochs 4770027
DRAM_bw_level_0 4759288
DRAM_bw_level_1 6561
DRAM_bw_level_2 3237
DRAM_bw_level_3 941
