*************************************************
   ChampSim Multicore Out-of-Order Simulator
   Last compiled: Mar 31 2025 20:14:32
*************************************************
parsing config file: /data3/config/dspatch.ini

trace_0 /data3/CLOUD9/traces/cloud9_phase3_core0.trace.xz
trace_1 /data3/CLOUD9/traces/cloud9_phase3_core1.trace.xz
trace_2 /data3/CLOUD9/traces/cloud9_phase3_core2.trace.xz
trace_3 /data3/CLOUD9/traces/cloud9_phase3_core3.trace.xz
adding L2C_PREFETCHER: DSPatch
adding L2C_PREFETCHER: DSPatch
adding L2C_PREFETCHER: DSPatch
adding L2C_PREFETCHER: DSPatch
Initialize SHIP state
warmup_instructions 50000000
simulation_instructions 150000000
champsim_seed 7346
measure_ipc 0
measure_ipc_epoch 1000
measure_dram_bw 1
measure_dram_bw_epoch 256
measure_cache_acc 1
measure_cache_acc_epoch 1024
l1d_perfect 0
l2c_perfect 0
llc_perfect 0
l1d_semi_perfect 0
l2c_semi_perfect 0
llc_semi_perfect 0
semi_perfect_cache_page_buffer_size 64

num_cpus 4
cpu_freq 4000
dram_io_freq 2400
page_size 4096
block_size 64
max_read_per_cycle 8
max_fill_per_cycle 1
dram_channels 2
log2_dram_channels 1
dram_ranks 1
dram_banks 8
dram_rows 65536
dram_columns 128
dram_row_size 8
dram_size 8192
dram_pages 2097152

fetch_width 6
decode_width 6
exec_width 4
lq_width 2
sq_width 2
retire_width 4
scheduler_size 128
branch_mispredict_penalty 20
rob_size 256
lq_size 72
sq_size 56
num_instr_destinations_sparc 4
num_instr_destinations 2
num_instr_sources 4

itlb_set 16
itlb_way 8
itlb_rq_size 16
itlb_wq_size 16
itlb_pq_size 0
itlb_mshr_size 8
itlb_latency 1

dtlb_set 16
dtlb_way 4
dtlb_rq_size 16
dtlb_wq_size 16
dtlb_pq_size 0
dtlb_mshr_size 8
dtlb_latency 1

stlb_set 128
stlb_way 12
stlb_rq_size 32
stlb_wq_size 32
stlb_pq_size 0
stlb_mshr_size 16
stlb_latency 8

l1i_size 32
l1i_set 64
l1i_way 8
l1i_rq_size 64
l1i_wq_size 64
l1i_pq_size 8
l1i_mshr_size 8
l1i_latency 1

l1d_size 32
l1d_set 64
l1d_way 8
l1d_rq_size 64
l1d_wq_size 64
l1d_pq_size 8
l1d_mshr_size 16
l1d_latency 4

l2c_size 256
l2c_set 512
l2c_way 8
l2c_rq_size 32
l2c_wq_size 32
l2c_pq_size 32
l2c_mshr_size 32
l2c_latency 10

llc_size 8192
llc_set 8192
llc_way 16
llc_rq_size 128
llc_wq_size 128
llc_pq_size 128
llc_mshr_size 256
llc_latency 20

dram_channel_width 8
dram_wq_size 64
dram_rq_size 64
tRP 15
tRCD 15
tCAS 12.5
dram_dbus_turn_around_time 30
dram_write_high_wm 56
dram_write_low_wm 48
min_dram_writes_per_switch 16
dram_mtps 2400
dram_dbus_return_time 13

dspatch_log2_region_size 11
dspatch_num_cachelines_in_region 32
dspatch_pb_size 64
dspatch_num_spt_entries 256
dspatch_compression_granularity 2
dspatch_pred_throttle_bw_thr 3
dspatch_bitmap_selection_policy 3
dspatch_sig_type 1
dspatch_sig_hash_type 2
dspatch_or_count_max 3
dspatch_measure_covP_max 3
dspatch_measure_accP_max 3
dspatch_acc_thr 50
dspatch_cov_thr 50
dspatch_enable_pref_buffer 1
dspatch_pref_buffer_size 256
dspatch_pref_degree 4


Heartbeat CPU  3 instructions:    1000003 cycles:     401528 heartbeat IPC: 2.49049 cumulative IPC: 2.49049 (Simulation time: 0 hr 0 min 6 sec) 
Heartbeat CPU  0 instructions:    1000001 cycles:     435148 heartbeat IPC: 2.29807 cumulative IPC: 2.29807 (Simulation time: 0 hr 0 min 7 sec) 
Heartbeat CPU  1 instructions:    1000001 cycles:     436139 heartbeat IPC: 2.29285 cumulative IPC: 2.29285 (Simulation time: 0 hr 0 min 7 sec) 
Heartbeat CPU  2 instructions:    1000000 cycles:     496247 heartbeat IPC: 2.01513 cumulative IPC: 2.01513 (Simulation time: 0 hr 0 min 8 sec) 
Heartbeat CPU  3 instructions:    2000003 cycles:     800339 heartbeat IPC: 2.50745 cumulative IPC: 2.49894 (Simulation time: 0 hr 0 min 13 sec) 
Heartbeat CPU  0 instructions:    2000003 cycles:     851013 heartbeat IPC: 2.40463 cumulative IPC: 2.35014 (Simulation time: 0 hr 0 min 14 sec) 
Heartbeat CPU  1 instructions:    2000003 cycles:     871718 heartbeat IPC: 2.29580 cumulative IPC: 2.29432 (Simulation time: 0 hr 0 min 14 sec) 
Heartbeat CPU  2 instructions:    2000001 cycles:     927686 heartbeat IPC: 2.31783 cumulative IPC: 2.15590 (Simulation time: 0 hr 0 min 15 sec) 
Heartbeat CPU  3 instructions:    3000003 cycles:    1195823 heartbeat IPC: 2.52855 cumulative IPC: 2.50873 (Simulation time: 0 hr 0 min 19 sec) 
Heartbeat CPU  0 instructions:    3000002 cycles:    1268959 heartbeat IPC: 2.39265 cumulative IPC: 2.36414 (Simulation time: 0 hr 0 min 21 sec) 
Heartbeat CPU  1 instructions:    3000001 cycles:    1299497 heartbeat IPC: 2.33765 cumulative IPC: 2.30859 (Simulation time: 0 hr 0 min 21 sec) 
Heartbeat CPU  2 instructions:    3000001 cycles:    1364793 heartbeat IPC: 2.28777 cumulative IPC: 2.19814 (Simulation time: 0 hr 0 min 22 sec) 
Heartbeat CPU  3 instructions:    4000000 cycles:    1590413 heartbeat IPC: 2.53427 cumulative IPC: 2.51507 (Simulation time: 0 hr 0 min 26 sec) 
Heartbeat CPU  0 instructions:    4000000 cycles:    1701898 heartbeat IPC: 2.30979 cumulative IPC: 2.35032 (Simulation time: 0 hr 0 min 27 sec) 
Heartbeat CPU  1 instructions:    4000000 cycles:    1762892 heartbeat IPC: 2.15798 cumulative IPC: 2.26900 (Simulation time: 0 hr 0 min 28 sec) 
Heartbeat CPU  2 instructions:    4000000 cycles:    1819513 heartbeat IPC: 2.19915 cumulative IPC: 2.19839 (Simulation time: 0 hr 0 min 29 sec) 
Heartbeat CPU  3 instructions:    5000001 cycles:    1983507 heartbeat IPC: 2.54392 cumulative IPC: 2.52079 (Simulation time: 0 hr 0 min 32 sec) 
Heartbeat CPU  0 instructions:    5000001 cycles:    2153814 heartbeat IPC: 2.21280 cumulative IPC: 2.32146 (Simulation time: 0 hr 0 min 35 sec) 
Heartbeat CPU  2 instructions:    5000000 cycles:    2240888 heartbeat IPC: 2.37318 cumulative IPC: 2.23126 (Simulation time: 0 hr 0 min 36 sec) 
Heartbeat CPU  1 instructions:    5000002 cycles:    2251330 heartbeat IPC: 2.04735 cumulative IPC: 2.22091 (Simulation time: 0 hr 0 min 36 sec) 
Heartbeat CPU  3 instructions:    6000002 cycles:    2379773 heartbeat IPC: 2.52356 cumulative IPC: 2.52125 (Simulation time: 0 hr 0 min 38 sec) 
Heartbeat CPU  0 instructions:    6000000 cycles:    2599179 heartbeat IPC: 2.24535 cumulative IPC: 2.30842 (Simulation time: 0 hr 0 min 42 sec) 
Heartbeat CPU  1 instructions:    6000001 cycles:    2687827 heartbeat IPC: 2.29096 cumulative IPC: 2.23229 (Simulation time: 0 hr 0 min 43 sec) 
Heartbeat CPU  2 instructions:    6000001 cycles:    2734034 heartbeat IPC: 2.02780 cumulative IPC: 2.19456 (Simulation time: 0 hr 0 min 44 sec) 
Heartbeat CPU  3 instructions:    7000000 cycles:    2779981 heartbeat IPC: 2.49870 cumulative IPC: 2.51800 (Simulation time: 0 hr 0 min 45 sec) 
Heartbeat CPU  0 instructions:    7000002 cycles:    3063106 heartbeat IPC: 2.15552 cumulative IPC: 2.28526 (Simulation time: 0 hr 0 min 49 sec) 
Heartbeat CPU  1 instructions:    7000000 cycles:    3137310 heartbeat IPC: 2.22478 cumulative IPC: 2.23121 (Simulation time: 0 hr 0 min 50 sec) 
Heartbeat CPU  2 instructions:    7000000 cycles:    3163088 heartbeat IPC: 2.33071 cumulative IPC: 2.21303 (Simulation time: 0 hr 0 min 51 sec) 
Heartbeat CPU  3 instructions:    8000000 cycles:    3175054 heartbeat IPC: 2.53118 cumulative IPC: 2.51964 (Simulation time: 0 hr 0 min 51 sec) 
Heartbeat CPU  0 instructions:    8000000 cycles:    3511508 heartbeat IPC: 2.23014 cumulative IPC: 2.27822 (Simulation time: 0 hr 0 min 56 sec) 
Heartbeat CPU  3 instructions:    9000000 cycles:    3569331 heartbeat IPC: 2.53629 cumulative IPC: 2.52148 (Simulation time: 0 hr 0 min 57 sec) 
Heartbeat CPU  2 instructions:    8000000 cycles:    3581001 heartbeat IPC: 2.39284 cumulative IPC: 2.23401 (Simulation time: 0 hr 0 min 57 sec) 
Heartbeat CPU  1 instructions:    8000000 cycles:    3589274 heartbeat IPC: 2.21257 cumulative IPC: 2.22886 (Simulation time: 0 hr 0 min 58 sec) 
Heartbeat CPU  0 instructions:    9000001 cycles:    3958325 heartbeat IPC: 2.23805 cumulative IPC: 2.27369 (Simulation time: 0 hr 1 min 4 sec) 
Heartbeat CPU  3 instructions:   10000000 cycles:    3964196 heartbeat IPC: 2.53251 cumulative IPC: 2.52258 (Simulation time: 0 hr 1 min 4 sec) 
Heartbeat CPU  2 instructions:    9000003 cycles:    4002893 heartbeat IPC: 2.37028 cumulative IPC: 2.24837 (Simulation time: 0 hr 1 min 4 sec) 
Heartbeat CPU  1 instructions:    9000001 cycles:    4022991 heartbeat IPC: 2.30565 cumulative IPC: 2.23714 (Simulation time: 0 hr 1 min 5 sec) 
Heartbeat CPU  3 instructions:   11000002 cycles:    4357820 heartbeat IPC: 2.54050 cumulative IPC: 2.52420 (Simulation time: 0 hr 1 min 10 sec) 
Heartbeat CPU  0 instructions:   10000003 cycles:    4409059 heartbeat IPC: 2.21861 cumulative IPC: 2.26806 (Simulation time: 0 hr 1 min 11 sec) 
Heartbeat CPU  2 instructions:   10000002 cycles:    4420306 heartbeat IPC: 2.39571 cumulative IPC: 2.26229 (Simulation time: 0 hr 1 min 11 sec) 
Heartbeat CPU  1 instructions:   10000000 cycles:    4510550 heartbeat IPC: 2.05103 cumulative IPC: 2.21702 (Simulation time: 0 hr 1 min 12 sec) 
Heartbeat CPU  3 instructions:   12000000 cycles:    4749618 heartbeat IPC: 2.55233 cumulative IPC: 2.52652 (Simulation time: 0 hr 1 min 16 sec) 
Heartbeat CPU  0 instructions:   11000003 cycles:    4892734 heartbeat IPC: 2.06750 cumulative IPC: 2.24823 (Simulation time: 0 hr 1 min 18 sec) 
Heartbeat CPU  1 instructions:   11000000 cycles:    4944517 heartbeat IPC: 2.30432 cumulative IPC: 2.22469 (Simulation time: 0 hr 1 min 19 sec) 
Heartbeat CPU  2 instructions:   11000001 cycles:    4997989 heartbeat IPC: 1.73105 cumulative IPC: 2.20089 (Simulation time: 0 hr 1 min 20 sec) 
Heartbeat CPU  3 instructions:   13000001 cycles:    5140389 heartbeat IPC: 2.55905 cumulative IPC: 2.52899 (Simulation time: 0 hr 1 min 22 sec) 
Heartbeat CPU  0 instructions:   12000000 cycles:    5309951 heartbeat IPC: 2.39683 cumulative IPC: 2.25991 (Simulation time: 0 hr 1 min 25 sec) 
Heartbeat CPU  1 instructions:   12000000 cycles:    5363554 heartbeat IPC: 2.38642 cumulative IPC: 2.23732 (Simulation time: 0 hr 1 min 26 sec) 
Heartbeat CPU  2 instructions:   12000000 cycles:    5426252 heartbeat IPC: 2.33501 cumulative IPC: 2.21147 (Simulation time: 0 hr 1 min 27 sec) 
Heartbeat CPU  3 instructions:   14000001 cycles:    5531227 heartbeat IPC: 2.55860 cumulative IPC: 2.53108 (Simulation time: 0 hr 1 min 29 sec) 
Heartbeat CPU  0 instructions:   13000002 cycles:    5744504 heartbeat IPC: 2.30122 cumulative IPC: 2.26303 (Simulation time: 0 hr 1 min 32 sec) 
Heartbeat CPU  1 instructions:   13000001 cycles:    5785828 heartbeat IPC: 2.36813 cumulative IPC: 2.24687 (Simulation time: 0 hr 1 min 33 sec) 
Heartbeat CPU  2 instructions:   13000000 cycles:    5854470 heartbeat IPC: 2.33526 cumulative IPC: 2.22053 (Simulation time: 0 hr 1 min 34 sec) 
Heartbeat CPU  3 instructions:   15000002 cycles:    5922355 heartbeat IPC: 2.55671 cumulative IPC: 2.53278 (Simulation time: 0 hr 1 min 35 sec) 
Heartbeat CPU  0 instructions:   14000003 cycles:    6173045 heartbeat IPC: 2.33350 cumulative IPC: 2.26793 (Simulation time: 0 hr 1 min 39 sec) 
Heartbeat CPU  1 instructions:   14000001 cycles:    6211512 heartbeat IPC: 2.34916 cumulative IPC: 2.25388 (Simulation time: 0 hr 1 min 39 sec) 
Heartbeat CPU  2 instructions:   14000000 cycles:    6287922 heartbeat IPC: 2.30706 cumulative IPC: 2.22649 (Simulation time: 0 hr 1 min 41 sec) 
Heartbeat CPU  3 instructions:   16000000 cycles:    6315133 heartbeat IPC: 2.54596 cumulative IPC: 2.53360 (Simulation time: 0 hr 1 min 41 sec) 
Heartbeat CPU  0 instructions:   15000002 cycles:    6592318 heartbeat IPC: 2.38508 cumulative IPC: 2.27538 (Simulation time: 0 hr 1 min 45 sec) 
Heartbeat CPU  3 instructions:   17000001 cycles:    6706389 heartbeat IPC: 2.55587 cumulative IPC: 2.53490 (Simulation time: 0 hr 1 min 47 sec) 
Heartbeat CPU  2 instructions:   15000000 cycles:    6750704 heartbeat IPC: 2.16084 cumulative IPC: 2.22199 (Simulation time: 0 hr 1 min 47 sec) 
Heartbeat CPU  1 instructions:   15000001 cycles:    6798090 heartbeat IPC: 1.70480 cumulative IPC: 2.20650 (Simulation time: 0 hr 1 min 48 sec) 
Heartbeat CPU  0 instructions:   16000000 cycles:    6999655 heartbeat IPC: 2.45496 cumulative IPC: 2.28583 (Simulation time: 0 hr 1 min 51 sec) 
Heartbeat CPU  3 instructions:   18000000 cycles:    7097446 heartbeat IPC: 2.55717 cumulative IPC: 2.53612 (Simulation time: 0 hr 1 min 53 sec) 
Heartbeat CPU  2 instructions:   16000000 cycles:    7197884 heartbeat IPC: 2.23624 cumulative IPC: 2.22288 (Simulation time: 0 hr 1 min 54 sec) 
Heartbeat CPU  1 instructions:   16000000 cycles:    7231171 heartbeat IPC: 2.30903 cumulative IPC: 2.21264 (Simulation time: 0 hr 1 min 55 sec) 
Heartbeat CPU  3 instructions:   19000002 cycles:    7489053 heartbeat IPC: 2.55359 cumulative IPC: 2.53704 (Simulation time: 0 hr 1 min 59 sec) 
Heartbeat CPU  0 instructions:   17000003 cycles:    7552421 heartbeat IPC: 1.80909 cumulative IPC: 2.25093 (Simulation time: 0 hr 2 min 0 sec) 
Heartbeat CPU  2 instructions:   17000000 cycles:    7637583 heartbeat IPC: 2.27428 cumulative IPC: 2.22584 (Simulation time: 0 hr 2 min 1 sec) 
Heartbeat CPU  1 instructions:   17000000 cycles:    7666022 heartbeat IPC: 2.29964 cumulative IPC: 2.21758 (Simulation time: 0 hr 2 min 1 sec) 
Heartbeat CPU  3 instructions:   20000000 cycles:    7878954 heartbeat IPC: 2.56475 cumulative IPC: 2.53841 (Simulation time: 0 hr 2 min 5 sec) 
Heartbeat CPU  0 instructions:   18000003 cycles:    7976464 heartbeat IPC: 2.35825 cumulative IPC: 2.25664 (Simulation time: 0 hr 2 min 6 sec) 
Heartbeat CPU  2 instructions:   18000003 cycles:    8063131 heartbeat IPC: 2.34992 cumulative IPC: 2.23238 (Simulation time: 0 hr 2 min 7 sec) 
Heartbeat CPU  1 instructions:   18000000 cycles:    8099474 heartbeat IPC: 2.30706 cumulative IPC: 2.22237 (Simulation time: 0 hr 2 min 8 sec) 
Heartbeat CPU  3 instructions:   21000001 cycles:    8276679 heartbeat IPC: 2.51430 cumulative IPC: 2.53725 (Simulation time: 0 hr 2 min 11 sec) 
Heartbeat CPU  0 instructions:   19000001 cycles:    8392621 heartbeat IPC: 2.40293 cumulative IPC: 2.26389 (Simulation time: 0 hr 2 min 12 sec) 
Heartbeat CPU  2 instructions:   19000000 cycles:    8514809 heartbeat IPC: 2.21396 cumulative IPC: 2.23141 (Simulation time: 0 hr 2 min 14 sec) 
Heartbeat CPU  1 instructions:   19000001 cycles:    8566111 heartbeat IPC: 2.14300 cumulative IPC: 2.21804 (Simulation time: 0 hr 2 min 15 sec) 
Heartbeat CPU  3 instructions:   22000001 cycles:    8669702 heartbeat IPC: 2.54438 cumulative IPC: 2.53757 (Simulation time: 0 hr 2 min 16 sec) 
Heartbeat CPU  2 instructions:   20000000 cycles:    8938134 heartbeat IPC: 2.36225 cumulative IPC: 2.23760 (Simulation time: 0 hr 2 min 20 sec) 
Heartbeat CPU  0 instructions:   20000000 cycles:    8948299 heartbeat IPC: 1.79960 cumulative IPC: 2.23506 (Simulation time: 0 hr 2 min 20 sec) 
Heartbeat CPU  1 instructions:   20000000 cycles:    9013716 heartbeat IPC: 2.23411 cumulative IPC: 2.21884 (Simulation time: 0 hr 2 min 21 sec) 
Heartbeat CPU  3 instructions:   23000000 cycles:    9060317 heartbeat IPC: 2.56006 cumulative IPC: 2.53854 (Simulation time: 0 hr 2 min 22 sec) 
Heartbeat CPU  0 instructions:   21000001 cycles:    9416170 heartbeat IPC: 2.13734 cumulative IPC: 2.23021 (Simulation time: 0 hr 2 min 28 sec) 
Heartbeat CPU  2 instructions:   21000000 cycles:    9431886 heartbeat IPC: 2.02531 cumulative IPC: 2.22649 (Simulation time: 0 hr 2 min 28 sec) 
Heartbeat CPU  1 instructions:   21000000 cycles:    9448086 heartbeat IPC: 2.30218 cumulative IPC: 2.22267 (Simulation time: 0 hr 2 min 28 sec) 
Heartbeat CPU  3 instructions:   24000000 cycles:    9448592 heartbeat IPC: 2.57549 cumulative IPC: 2.54006 (Simulation time: 0 hr 2 min 28 sec) 
Heartbeat CPU  3 instructions:   25000000 cycles:    9837875 heartbeat IPC: 2.56883 cumulative IPC: 2.54120 (Simulation time: 0 hr 2 min 34 sec) 
Heartbeat CPU  0 instructions:   22000003 cycles:    9840986 heartbeat IPC: 2.35397 cumulative IPC: 2.23555 (Simulation time: 0 hr 2 min 35 sec) 
Heartbeat CPU  2 instructions:   22000003 cycles:    9850168 heartbeat IPC: 2.39074 cumulative IPC: 2.23346 (Simulation time: 0 hr 2 min 35 sec) 
Heartbeat CPU  1 instructions:   22000002 cycles:    9896421 heartbeat IPC: 2.23048 cumulative IPC: 2.22303 (Simulation time: 0 hr 2 min 35 sec) 
Heartbeat CPU  3 instructions:   26000002 cycles:   10229572 heartbeat IPC: 2.55300 cumulative IPC: 2.54165 (Simulation time: 0 hr 2 min 41 sec) 
Heartbeat CPU  0 instructions:   23000001 cycles:   10263498 heartbeat IPC: 2.36679 cumulative IPC: 2.24095 (Simulation time: 0 hr 2 min 41 sec) 
Heartbeat CPU  2 instructions:   23000002 cycles:   10271261 heartbeat IPC: 2.37477 cumulative IPC: 2.23926 (Simulation time: 0 hr 2 min 41 sec) 
Heartbeat CPU  1 instructions:   23000001 cycles:   10341969 heartbeat IPC: 2.24442 cumulative IPC: 2.22395 (Simulation time: 0 hr 2 min 43 sec) 
Heartbeat CPU  3 instructions:   27000000 cycles:   10622213 heartbeat IPC: 2.54685 cumulative IPC: 2.54184 (Simulation time: 0 hr 2 min 47 sec) 
Heartbeat CPU  0 instructions:   24000000 cycles:   10677645 heartbeat IPC: 2.41460 cumulative IPC: 2.24769 (Simulation time: 0 hr 2 min 48 sec) 
Heartbeat CPU  2 instructions:   24000000 cycles:   10693616 heartbeat IPC: 2.36767 cumulative IPC: 2.24433 (Simulation time: 0 hr 2 min 48 sec) 
Heartbeat CPU  1 instructions:   24000000 cycles:   10772683 heartbeat IPC: 2.32172 cumulative IPC: 2.22786 (Simulation time: 0 hr 2 min 50 sec) 
Heartbeat CPU  3 instructions:   28000000 cycles:   11014185 heartbeat IPC: 2.55120 cumulative IPC: 2.54218 (Simulation time: 0 hr 2 min 54 sec) 
Heartbeat CPU  0 instructions:   25000003 cycles:   11067426 heartbeat IPC: 2.56555 cumulative IPC: 2.25888 (Simulation time: 0 hr 2 min 54 sec) 
Heartbeat CPU  2 instructions:   25000003 cycles:   11109969 heartbeat IPC: 2.40182 cumulative IPC: 2.25023 (Simulation time: 0 hr 2 min 55 sec) 
Heartbeat CPU  1 instructions:   25000002 cycles:   11268186 heartbeat IPC: 2.01816 cumulative IPC: 2.21864 (Simulation time: 0 hr 2 min 57 sec) 
Heartbeat CPU  3 instructions:   29000003 cycles:   11407234 heartbeat IPC: 2.54422 cumulative IPC: 2.54225 (Simulation time: 0 hr 2 min 59 sec) 
Heartbeat CPU  0 instructions:   26000001 cycles:   11455595 heartbeat IPC: 2.57619 cumulative IPC: 2.26963 (Simulation time: 0 hr 3 min 0 sec) 
Heartbeat CPU  2 instructions:   26000000 cycles:   11692255 heartbeat IPC: 1.71736 cumulative IPC: 2.22369 (Simulation time: 0 hr 3 min 4 sec) 
Heartbeat CPU  1 instructions:   26000000 cycles:   11695892 heartbeat IPC: 2.33805 cumulative IPC: 2.22300 (Simulation time: 0 hr 3 min 4 sec) 
Heartbeat CPU  3 instructions:   30000001 cycles:   11798308 heartbeat IPC: 2.55706 cumulative IPC: 2.54274 (Simulation time: 0 hr 3 min 6 sec) 
Heartbeat CPU  0 instructions:   27000000 cycles:   11860471 heartbeat IPC: 2.46989 cumulative IPC: 2.27647 (Simulation time: 0 hr 3 min 7 sec) 
Heartbeat CPU  1 instructions:   27000001 cycles:   12118350 heartbeat IPC: 2.36710 cumulative IPC: 2.22803 (Simulation time: 0 hr 3 min 11 sec) 
Heartbeat CPU  2 instructions:   27000003 cycles:   12124294 heartbeat IPC: 2.31461 cumulative IPC: 2.22693 (Simulation time: 0 hr 3 min 11 sec) 
Heartbeat CPU  3 instructions:   31000000 cycles:   12190511 heartbeat IPC: 2.54970 cumulative IPC: 2.54296 (Simulation time: 0 hr 3 min 12 sec) 
Heartbeat CPU  0 instructions:   28000000 cycles:   12271124 heartbeat IPC: 2.43515 cumulative IPC: 2.28178 (Simulation time: 0 hr 3 min 13 sec) 
Heartbeat CPU  1 instructions:   28000000 cycles:   12539494 heartbeat IPC: 2.37448 cumulative IPC: 2.23294 (Simulation time: 0 hr 3 min 17 sec) 
Heartbeat CPU  2 instructions:   28000000 cycles:   12548098 heartbeat IPC: 2.35957 cumulative IPC: 2.23141 (Simulation time: 0 hr 3 min 18 sec) 
Heartbeat CPU  3 instructions:   32000000 cycles:   12582746 heartbeat IPC: 2.54949 cumulative IPC: 2.54316 (Simulation time: 0 hr 3 min 18 sec) 
Heartbeat CPU  0 instructions:   29000002 cycles:   12723352 heartbeat IPC: 2.21128 cumulative IPC: 2.27927 (Simulation time: 0 hr 3 min 20 sec) 
Heartbeat CPU  1 instructions:   29000001 cycles:   12965720 heartbeat IPC: 2.34618 cumulative IPC: 2.23667 (Simulation time: 0 hr 3 min 24 sec) 
Heartbeat CPU  3 instructions:   33000002 cycles:   12976058 heartbeat IPC: 2.54252 cumulative IPC: 2.54315 (Simulation time: 0 hr 3 min 24 sec) 
Heartbeat CPU  2 instructions:   29000001 cycles:   12995970 heartbeat IPC: 2.23278 cumulative IPC: 2.23146 (Simulation time: 0 hr 3 min 24 sec) 
Heartbeat CPU  0 instructions:   30000000 cycles:   13177580 heartbeat IPC: 2.20153 cumulative IPC: 2.27659 (Simulation time: 0 hr 3 min 27 sec) 
Heartbeat CPU  3 instructions:   34000003 cycles:   13363319 heartbeat IPC: 2.58224 cumulative IPC: 2.54428 (Simulation time: 0 hr 3 min 29 sec) 
Heartbeat CPU  2 instructions:   30000000 cycles:   13463874 heartbeat IPC: 2.13719 cumulative IPC: 2.22818 (Simulation time: 0 hr 3 min 31 sec) 
Heartbeat CPU  1 instructions:   30000001 cycles:   13549538 heartbeat IPC: 1.71286 cumulative IPC: 2.21410 (Simulation time: 0 hr 3 min 32 sec) 
Heartbeat CPU  0 instructions:   31000002 cycles:   13632634 heartbeat IPC: 2.19755 cumulative IPC: 2.27396 (Simulation time: 0 hr 3 min 34 sec) 
Heartbeat CPU  3 instructions:   35000002 cycles:   13753222 heartbeat IPC: 2.56474 cumulative IPC: 2.54486 (Simulation time: 0 hr 3 min 35 sec) 
Heartbeat CPU  2 instructions:   31000001 cycles:   13887984 heartbeat IPC: 2.35788 cumulative IPC: 2.23215 (Simulation time: 0 hr 3 min 37 sec) 
Heartbeat CPU  1 instructions:   31000001 cycles:   13983788 heartbeat IPC: 2.30282 cumulative IPC: 2.21685 (Simulation time: 0 hr 3 min 39 sec) 
Heartbeat CPU  0 instructions:   32000000 cycles:   14084447 heartbeat IPC: 2.21330 cumulative IPC: 2.27201 (Simulation time: 0 hr 3 min 40 sec) 
Heartbeat CPU  3 instructions:   36000000 cycles:   14144538 heartbeat IPC: 2.55547 cumulative IPC: 2.54515 (Simulation time: 0 hr 3 min 41 sec) 
Heartbeat CPU  2 instructions:   32000000 cycles:   14332112 heartbeat IPC: 2.25160 cumulative IPC: 2.23275 (Simulation time: 0 hr 3 min 44 sec) 
Heartbeat CPU  1 instructions:   32000000 cycles:   14417867 heartbeat IPC: 2.30373 cumulative IPC: 2.21947 (Simulation time: 0 hr 3 min 46 sec) 
Heartbeat CPU  0 instructions:   33000000 cycles:   14532443 heartbeat IPC: 2.23216 cumulative IPC: 2.27078 (Simulation time: 0 hr 3 min 47 sec) 
Heartbeat CPU  3 instructions:   37000001 cycles:   14538851 heartbeat IPC: 2.53606 cumulative IPC: 2.54491 (Simulation time: 0 hr 3 min 48 sec) 
Heartbeat CPU  2 instructions:   33000003 cycles:   14782460 heartbeat IPC: 2.22051 cumulative IPC: 2.23238 (Simulation time: 0 hr 3 min 51 sec) 
Heartbeat CPU  1 instructions:   33000001 cycles:   14857675 heartbeat IPC: 2.27372 cumulative IPC: 2.22107 (Simulation time: 0 hr 3 min 52 sec) 
Heartbeat CPU  3 instructions:   38000002 cycles:   14932147 heartbeat IPC: 2.54262 cumulative IPC: 2.54485 (Simulation time: 0 hr 3 min 53 sec) 
Heartbeat CPU  0 instructions:   34000000 cycles:   14979040 heartbeat IPC: 2.23916 cumulative IPC: 2.26984 (Simulation time: 0 hr 3 min 54 sec) 
Heartbeat CPU  2 instructions:   34000000 cycles:   15205357 heartbeat IPC: 2.36463 cumulative IPC: 2.23605 (Simulation time: 0 hr 3 min 58 sec) 
Heartbeat CPU  3 instructions:   39000002 cycles:   15325034 heartbeat IPC: 2.54526 cumulative IPC: 2.54486 (Simulation time: 0 hr 3 min 59 sec) 
Heartbeat CPU  1 instructions:   34000000 cycles:   15325556 heartbeat IPC: 2.13729 cumulative IPC: 2.21852 (Simulation time: 0 hr 3 min 59 sec) 
Heartbeat CPU  0 instructions:   35000003 cycles:   15424495 heartbeat IPC: 2.24490 cumulative IPC: 2.26912 (Simulation time: 0 hr 4 min 1 sec) 
Heartbeat CPU  2 instructions:   35000000 cycles:   15626302 heartbeat IPC: 2.37561 cumulative IPC: 2.23981 (Simulation time: 0 hr 4 min 4 sec) 
Heartbeat CPU  3 instructions:   40000000 cycles:   15718457 heartbeat IPC: 2.54179 cumulative IPC: 2.54478 (Simulation time: 0 hr 4 min 5 sec) 
Heartbeat CPU  1 instructions:   35000001 cycles:   15756392 heartbeat IPC: 2.32107 cumulative IPC: 2.22132 (Simulation time: 0 hr 4 min 6 sec) 
Heartbeat CPU  0 instructions:   36000000 cycles:   15879906 heartbeat IPC: 2.19581 cumulative IPC: 2.26702 (Simulation time: 0 hr 4 min 8 sec) 
Heartbeat CPU  3 instructions:   41000000 cycles:   16109965 heartbeat IPC: 2.55423 cumulative IPC: 2.54501 (Simulation time: 0 hr 4 min 12 sec) 
Heartbeat CPU  2 instructions:   36000000 cycles:   16116547 heartbeat IPC: 2.03980 cumulative IPC: 2.23373 (Simulation time: 0 hr 4 min 12 sec) 
Heartbeat CPU  1 instructions:   36000000 cycles:   16209219 heartbeat IPC: 2.20835 cumulative IPC: 2.22096 (Simulation time: 0 hr 4 min 13 sec) 
Heartbeat CPU  0 instructions:   37000000 cycles:   16305938 heartbeat IPC: 2.34724 cumulative IPC: 2.26911 (Simulation time: 0 hr 4 min 15 sec) 
Heartbeat CPU  3 instructions:   42000003 cycles:   16504093 heartbeat IPC: 2.53725 cumulative IPC: 2.54482 (Simulation time: 0 hr 4 min 18 sec) 
Heartbeat CPU  2 instructions:   37000003 cycles:   16536002 heartbeat IPC: 2.38405 cumulative IPC: 2.23754 (Simulation time: 0 hr 4 min 19 sec) 
Heartbeat CPU  1 instructions:   37000000 cycles:   16663506 heartbeat IPC: 2.20125 cumulative IPC: 2.22042 (Simulation time: 0 hr 4 min 21 sec) 
Heartbeat CPU  0 instructions:   38000001 cycles:   16726990 heartbeat IPC: 2.37501 cumulative IPC: 2.27178 (Simulation time: 0 hr 4 min 22 sec) 
Heartbeat CPU  3 instructions:   43000003 cycles:   16895166 heartbeat IPC: 2.55707 cumulative IPC: 2.54511 (Simulation time: 0 hr 4 min 25 sec) 
Heartbeat CPU  2 instructions:   38000001 cycles:   16957347 heartbeat IPC: 2.37335 cumulative IPC: 2.24092 (Simulation time: 0 hr 4 min 26 sec) 
Heartbeat CPU  1 instructions:   38000000 cycles:   17091016 heartbeat IPC: 2.33913 cumulative IPC: 2.22339 (Simulation time: 0 hr 4 min 28 sec) 
Heartbeat CPU  0 instructions:   39000000 cycles:   17170242 heartbeat IPC: 2.25605 cumulative IPC: 2.27137 (Simulation time: 0 hr 4 min 29 sec) 
Heartbeat CPU  3 instructions:   44000000 cycles:   17287106 heartbeat IPC: 2.55140 cumulative IPC: 2.54525 (Simulation time: 0 hr 4 min 31 sec) 
Heartbeat CPU  2 instructions:   39000000 cycles:   17372896 heartbeat IPC: 2.40645 cumulative IPC: 2.24488 (Simulation time: 0 hr 4 min 32 sec) 
Heartbeat CPU  1 instructions:   39000000 cycles:   17515354 heartbeat IPC: 2.35661 cumulative IPC: 2.22662 (Simulation time: 0 hr 4 min 35 sec) 
Heartbeat CPU  0 instructions:   40000000 cycles:   17622496 heartbeat IPC: 2.21115 cumulative IPC: 2.26983 (Simulation time: 0 hr 4 min 36 sec) 
Heartbeat CPU  3 instructions:   45000001 cycles:   17680231 heartbeat IPC: 2.54372 cumulative IPC: 2.54522 (Simulation time: 0 hr 4 min 37 sec) 
Heartbeat CPU  2 instructions:   40000000 cycles:   17948400 heartbeat IPC: 1.73761 cumulative IPC: 2.22861 (Simulation time: 0 hr 4 min 41 sec) 
Heartbeat CPU  1 instructions:   40000000 cycles:   18015249 heartbeat IPC: 2.00042 cumulative IPC: 2.22034 (Simulation time: 0 hr 4 min 42 sec) 
Heartbeat CPU  0 instructions:   41000001 cycles:   18058948 heartbeat IPC: 2.29120 cumulative IPC: 2.27034 (Simulation time: 0 hr 4 min 43 sec) 
Heartbeat CPU  3 instructions:   46000003 cycles:   18072273 heartbeat IPC: 2.55075 cumulative IPC: 2.54534 (Simulation time: 0 hr 4 min 43 sec) 
Heartbeat CPU  2 instructions:   41000002 cycles:   18374985 heartbeat IPC: 2.34420 cumulative IPC: 2.23129 (Simulation time: 0 hr 4 min 48 sec) 
Heartbeat CPU  1 instructions:   41000000 cycles:   18435957 heartbeat IPC: 2.37695 cumulative IPC: 2.22391 (Simulation time: 0 hr 4 min 49 sec) 
Heartbeat CPU  3 instructions:   47000002 cycles:   18471885 heartbeat IPC: 2.50242 cumulative IPC: 2.54441 (Simulation time: 0 hr 4 min 50 sec) 
Heartbeat CPU  0 instructions:   42000000 cycles:   18483705 heartbeat IPC: 2.35429 cumulative IPC: 2.27227 (Simulation time: 0 hr 4 min 50 sec) 
Heartbeat CPU  2 instructions:   42000001 cycles:   18803523 heartbeat IPC: 2.33351 cumulative IPC: 2.23362 (Simulation time: 0 hr 4 min 56 sec) 
Heartbeat CPU  1 instructions:   42000001 cycles:   18859410 heartbeat IPC: 2.36154 cumulative IPC: 2.22701 (Simulation time: 0 hr 4 min 56 sec) 
Heartbeat CPU  3 instructions:   48000000 cycles:   18863746 heartbeat IPC: 2.55192 cumulative IPC: 2.54456 (Simulation time: 0 hr 4 min 57 sec) 
Heartbeat CPU  0 instructions:   43000001 cycles:   18925268 heartbeat IPC: 2.26468 cumulative IPC: 2.27209 (Simulation time: 0 hr 4 min 58 sec) 
Heartbeat CPU  2 instructions:   43000003 cycles:   19226301 heartbeat IPC: 2.36531 cumulative IPC: 2.23652 (Simulation time: 0 hr 5 min 2 sec) 
Heartbeat CPU  3 instructions:   49000002 cycles:   19256030 heartbeat IPC: 2.54918 cumulative IPC: 2.54466 (Simulation time: 0 hr 5 min 3 sec) 
Heartbeat CPU  1 instructions:   43000002 cycles:   19279550 heartbeat IPC: 2.38016 cumulative IPC: 2.23034 (Simulation time: 0 hr 5 min 3 sec) 
Heartbeat CPU  0 instructions:   44000000 cycles:   19378105 heartbeat IPC: 2.20830 cumulative IPC: 2.27060 (Simulation time: 0 hr 5 min 5 sec) 
Heartbeat CPU  3 instructions:   50000003 cycles:   19644388 heartbeat IPC: 2.57495 cumulative IPC: 2.54526 (Simulation time: 0 hr 5 min 9 sec) 
Heartbeat CPU  2 instructions:   44000000 cycles:   19681437 heartbeat IPC: 2.19714 cumulative IPC: 2.23561 (Simulation time: 0 hr 5 min 10 sec) 
Heartbeat CPU  1 instructions:   44000000 cycles:   19716081 heartbeat IPC: 2.29078 cumulative IPC: 2.23168 (Simulation time: 0 hr 5 min 10 sec) 
Heartbeat CPU  0 instructions:   45000000 cycles:   19833989 heartbeat IPC: 2.19354 cumulative IPC: 2.26883 (Simulation time: 0 hr 5 min 11 sec) 
Heartbeat CPU  3 instructions:   51000003 cycles:   20035538 heartbeat IPC: 2.55656 cumulative IPC: 0.04991 (Simulation time: 0 hr 5 min 14 sec) 
Heartbeat CPU  2 instructions:   45000003 cycles:   20134972 heartbeat IPC: 2.20491 cumulative IPC: 2.23492 (Simulation time: 0 hr 5 min 16 sec) 
Heartbeat CPU  0 instructions:   46000002 cycles:   20276279 heartbeat IPC: 2.26096 cumulative IPC: 2.26866 (Simulation time: 0 hr 5 min 18 sec) 
Heartbeat CPU  1 instructions:   45000000 cycles:   20296449 heartbeat IPC: 1.72304 cumulative IPC: 2.21714 (Simulation time: 0 hr 5 min 19 sec) 
Heartbeat CPU  3 instructions:   52000000 cycles:   20440574 heartbeat IPC: 2.46891 cumulative IPC: 0.09784 (Simulation time: 0 hr 5 min 21 sec) 
Heartbeat CPU  2 instructions:   46000002 cycles:   20559274 heartbeat IPC: 2.35681 cumulative IPC: 2.23743 (Simulation time: 0 hr 5 min 23 sec) 
Heartbeat CPU  1 instructions:   46000002 cycles:   20729425 heartbeat IPC: 2.30960 cumulative IPC: 2.21907 (Simulation time: 0 hr 5 min 26 sec) 
Heartbeat CPU  0 instructions:   47000000 cycles:   20737179 heartbeat IPC: 2.16966 cumulative IPC: 2.26646 (Simulation time: 0 hr 5 min 26 sec) 
Heartbeat CPU  3 instructions:   53000001 cycles:   20830323 heartbeat IPC: 2.56576 cumulative IPC: 0.14402 (Simulation time: 0 hr 5 min 27 sec) 
Heartbeat CPU  2 instructions:   47000001 cycles:   20998019 heartbeat IPC: 2.27923 cumulative IPC: 2.23831 (Simulation time: 0 hr 5 min 30 sec) 
Heartbeat CPU  1 instructions:   47000002 cycles:   21158708 heartbeat IPC: 2.32947 cumulative IPC: 2.22131 (Simulation time: 0 hr 5 min 33 sec) 
Heartbeat CPU  0 instructions:   48000000 cycles:   21185737 heartbeat IPC: 2.22937 cumulative IPC: 2.26568 (Simulation time: 0 hr 5 min 33 sec) 
Heartbeat CPU  3 instructions:   54000001 cycles:   21221817 heartbeat IPC: 2.55432 cumulative IPC: 0.18849 (Simulation time: 0 hr 5 min 34 sec) 
Heartbeat CPU  2 instructions:   48000000 cycles:   21452111 heartbeat IPC: 2.20219 cumulative IPC: 2.23754 (Simulation time: 0 hr 5 min 37 sec) 
Heartbeat CPU  0 instructions:   49000000 cycles:   21582348 heartbeat IPC: 2.52136 cumulative IPC: 2.27037 (Simulation time: 0 hr 5 min 40 sec) 
Heartbeat CPU  3 instructions:   55000003 cycles:   21614952 heartbeat IPC: 2.54366 cumulative IPC: 0.23132 (Simulation time: 0 hr 5 min 40 sec) 
Heartbeat CPU  1 instructions:   48000000 cycles:   21615506 heartbeat IPC: 2.18915 cumulative IPC: 2.22063 (Simulation time: 0 hr 5 min 40 sec) 
Heartbeat CPU  2 instructions:   49000001 cycles:   21872662 heartbeat IPC: 2.37784 cumulative IPC: 2.24024 (Simulation time: 0 hr 5 min 44 sec) 
Heartbeat CPU  0 instructions:   50000002 cycles:   21974700 heartbeat IPC: 2.54874 cumulative IPC: 2.27534 (Simulation time: 0 hr 5 min 46 sec) 
Heartbeat CPU  3 instructions:   56000000 cycles:   22005862 heartbeat IPC: 2.55813 cumulative IPC: 0.27265 (Simulation time: 0 hr 5 min 47 sec) 
Heartbeat CPU  1 instructions:   49000003 cycles:   22077318 heartbeat IPC: 2.16539 cumulative IPC: 2.21947 (Simulation time: 0 hr 5 min 48 sec) 
Heartbeat CPU  2 instructions:   50000003 cycles:   22364694 heartbeat IPC: 2.03239 cumulative IPC: 2.23567 (Simulation time: 0 hr 5 min 53 sec) 
Heartbeat CPU  0 instructions:   51000000 cycles:   22368085 heartbeat IPC: 2.54203 cumulative IPC: 0.04471 (Simulation time: 0 hr 5 min 53 sec) 
Heartbeat CPU  3 instructions:   57000001 cycles:   22397330 heartbeat IPC: 2.55449 cumulative IPC: 0.31254 (Simulation time: 0 hr 5 min 53 sec) 
Heartbeat CPU  1 instructions:   50000003 cycles:   22506418 heartbeat IPC: 2.33046 cumulative IPC: 2.22159 (Simulation time: 0 hr 5 min 55 sec) 

Warmup complete CPU  0 instructions:   51348709 cycles:   22506417 (Simulation time: 0 hr 5 min 55 sec) 
Warmup complete CPU  1 instructions:   50000003 cycles:   22506418 (Simulation time: 0 hr 5 min 55 sec) 
Warmup complete CPU  2 instructions:   50332624 cycles:   22506417 (Simulation time: 0 hr 5 min 55 sec) 
Warmup complete CPU  3 instructions:   57279848 cycles:   22506417 (Simulation time: 0 hr 5 min 55 sec) 

Heartbeat CPU  3 instructions:   58000000 cycles:   27264664 heartbeat IPC: 0.20545 cumulative IPC: 0.15135 (Simulation time: 0 hr 6 min 2 sec) 
Heartbeat CPU  0 instructions:   52000000 cycles:   27793123 heartbeat IPC: 0.18433 cumulative IPC: 0.12319 (Simulation time: 0 hr 6 min 3 sec) 
Heartbeat CPU  2 instructions:   51000003 cycles:   27998560 heartbeat IPC: 0.17750 cumulative IPC: 0.12152 (Simulation time: 0 hr 6 min 3 sec) 
Heartbeat CPU  1 instructions:   51000000 cycles:   30665925 heartbeat IPC: 0.12256 cumulative IPC: 0.12256 (Simulation time: 0 hr 6 min 7 sec) 
Heartbeat CPU  3 instructions:   59000001 cycles:   33845180 heartbeat IPC: 0.15196 cumulative IPC: 0.15171 (Simulation time: 0 hr 6 min 11 sec) 
Heartbeat CPU  0 instructions:   53000003 cycles:   35951725 heartbeat IPC: 0.12257 cumulative IPC: 0.12282 (Simulation time: 0 hr 6 min 14 sec) 
Heartbeat CPU  2 instructions:   52000000 cycles:   36165123 heartbeat IPC: 0.12245 cumulative IPC: 0.12207 (Simulation time: 0 hr 6 min 15 sec) 
Heartbeat CPU  1 instructions:   52000000 cycles:   38890679 heartbeat IPC: 0.12158 cumulative IPC: 0.12207 (Simulation time: 0 hr 6 min 18 sec) 
Heartbeat CPU  3 instructions:   60000000 cycles:   40443799 heartbeat IPC: 0.15155 cumulative IPC: 0.15165 (Simulation time: 0 hr 6 min 21 sec) 
Heartbeat CPU  0 instructions:   54000001 cycles:   43905178 heartbeat IPC: 0.12573 cumulative IPC: 0.12390 (Simulation time: 0 hr 6 min 26 sec) 
Heartbeat CPU  2 instructions:   53000003 cycles:   44392850 heartbeat IPC: 0.12154 cumulative IPC: 0.12187 (Simulation time: 0 hr 6 min 26 sec) 
Heartbeat CPU  3 instructions:   61000000 cycles:   47043136 heartbeat IPC: 0.15153 cumulative IPC: 0.15162 (Simulation time: 0 hr 6 min 30 sec) 
Heartbeat CPU  1 instructions:   53000003 cycles:   47126892 heartbeat IPC: 0.12142 cumulative IPC: 0.12185 (Simulation time: 0 hr 6 min 30 sec) 
Heartbeat CPU  0 instructions:   55000001 cycles:   51221059 heartbeat IPC: 0.13669 cumulative IPC: 0.12716 (Simulation time: 0 hr 6 min 36 sec) 
Heartbeat CPU  2 instructions:   54000001 cycles:   52626647 heartbeat IPC: 0.12145 cumulative IPC: 0.12176 (Simulation time: 0 hr 6 min 38 sec) 
Heartbeat CPU  3 instructions:   62000001 cycles:   53620927 heartbeat IPC: 0.15203 cumulative IPC: 0.15170 (Simulation time: 0 hr 6 min 40 sec) 
Heartbeat CPU  1 instructions:   54000001 cycles:   55430400 heartbeat IPC: 0.12043 cumulative IPC: 0.12149 (Simulation time: 0 hr 6 min 42 sec) 
Heartbeat CPU  0 instructions:   56000000 cycles:   58972771 heartbeat IPC: 0.12900 cumulative IPC: 0.12755 (Simulation time: 0 hr 6 min 48 sec) 
Heartbeat CPU  3 instructions:   63000003 cycles:   60234597 heartbeat IPC: 0.15120 cumulative IPC: 0.15161 (Simulation time: 0 hr 6 min 49 sec) 
Heartbeat CPU  2 instructions:   55000000 cycles:   61207910 heartbeat IPC: 0.11653 cumulative IPC: 0.12060 (Simulation time: 0 hr 6 min 51 sec) 
Heartbeat CPU  1 instructions:   55000000 cycles:   63706800 heartbeat IPC: 0.12083 cumulative IPC: 0.12136 (Simulation time: 0 hr 6 min 54 sec) 
Heartbeat CPU  0 instructions:   57000003 cycles:   66013097 heartbeat IPC: 0.14204 cumulative IPC: 0.12989 (Simulation time: 0 hr 6 min 58 sec) 
Heartbeat CPU  3 instructions:   64000000 cycles:   66819499 heartbeat IPC: 0.15186 cumulative IPC: 0.15165 (Simulation time: 0 hr 6 min 59 sec) 
Heartbeat CPU  2 instructions:   56000000 cycles:   69478283 heartbeat IPC: 0.12091 cumulative IPC: 0.12065 (Simulation time: 0 hr 7 min 3 sec) 
Heartbeat CPU  1 instructions:   56000000 cycles:   71966828 heartbeat IPC: 0.12106 cumulative IPC: 0.12131 (Simulation time: 0 hr 7 min 6 sec) 
Heartbeat CPU  0 instructions:   58000001 cycles:   73406828 heartbeat IPC: 0.13525 cumulative IPC: 0.13067 (Simulation time: 0 hr 7 min 8 sec) 
Heartbeat CPU  3 instructions:   65000001 cycles:   73444923 heartbeat IPC: 0.15093 cumulative IPC: 0.15156 (Simulation time: 0 hr 7 min 8 sec) 
Heartbeat CPU  2 instructions:   57000000 cycles:   77770773 heartbeat IPC: 0.12059 cumulative IPC: 0.12065 (Simulation time: 0 hr 7 min 15 sec) 
Heartbeat CPU  3 instructions:   66000001 cycles:   79998251 heartbeat IPC: 0.15259 cumulative IPC: 0.15168 (Simulation time: 0 hr 7 min 18 sec) 
Heartbeat CPU  1 instructions:   57000000 cycles:   80255263 heartbeat IPC: 0.12065 cumulative IPC: 0.12121 (Simulation time: 0 hr 7 min 18 sec) 
Heartbeat CPU  0 instructions:   59000000 cycles:   80468150 heartbeat IPC: 0.14162 cumulative IPC: 0.13201 (Simulation time: 0 hr 7 min 19 sec) 
Heartbeat CPU  2 instructions:   58000002 cycles:   85315283 heartbeat IPC: 0.13255 cumulative IPC: 0.12207 (Simulation time: 0 hr 7 min 26 sec) 
Heartbeat CPU  3 instructions:   67000000 cycles:   86562286 heartbeat IPC: 0.15235 cumulative IPC: 0.15174 (Simulation time: 0 hr 7 min 28 sec) 
Heartbeat CPU  0 instructions:   60000000 cycles:   87065337 heartbeat IPC: 0.15158 cumulative IPC: 0.13401 (Simulation time: 0 hr 7 min 29 sec) 
Heartbeat CPU  1 instructions:   58000000 cycles:   88585375 heartbeat IPC: 0.12005 cumulative IPC: 0.12107 (Simulation time: 0 hr 7 min 32 sec) 
Heartbeat CPU  2 instructions:   59000002 cycles:   89916798 heartbeat IPC: 0.21732 cumulative IPC: 0.12858 (Simulation time: 0 hr 7 min 34 sec) 
Heartbeat CPU  3 instructions:   68000000 cycles:   93111852 heartbeat IPC: 0.15268 cumulative IPC: 0.15183 (Simulation time: 0 hr 7 min 39 sec) 
Heartbeat CPU  0 instructions:   61000001 cycles:   93726496 heartbeat IPC: 0.15012 cumulative IPC: 0.13551 (Simulation time: 0 hr 7 min 40 sec) 
Heartbeat CPU  2 instructions:   60000000 cycles:   96790738 heartbeat IPC: 0.14548 cumulative IPC: 0.13014 (Simulation time: 0 hr 7 min 45 sec) 
Heartbeat CPU  1 instructions:   59000001 cycles:   97305802 heartbeat IPC: 0.11467 cumulative IPC: 0.12032 (Simulation time: 0 hr 7 min 45 sec) 
Heartbeat CPU  3 instructions:   69000003 cycles:   99674850 heartbeat IPC: 0.15237 cumulative IPC: 0.15188 (Simulation time: 0 hr 7 min 49 sec) 
Heartbeat CPU  0 instructions:   62000001 cycles:  100070848 heartbeat IPC: 0.15762 cumulative IPC: 0.13732 (Simulation time: 0 hr 7 min 50 sec) 
Heartbeat CPU  2 instructions:   61000002 cycles:  104955622 heartbeat IPC: 0.12248 cumulative IPC: 0.12938 (Simulation time: 0 hr 7 min 57 sec) 
Heartbeat CPU  1 instructions:   60000000 cycles:  105588943 heartbeat IPC: 0.12073 cumulative IPC: 0.12036 (Simulation time: 0 hr 7 min 58 sec) 
Heartbeat CPU  3 instructions:   70000002 cycles:  106232503 heartbeat IPC: 0.15249 cumulative IPC: 0.15193 (Simulation time: 0 hr 7 min 59 sec) 
Heartbeat CPU  0 instructions:   63000001 cycles:  106387679 heartbeat IPC: 0.15831 cumulative IPC: 0.13890 (Simulation time: 0 hr 7 min 59 sec) 
Heartbeat CPU  0 instructions:   64000000 cycles:  112783958 heartbeat IPC: 0.15634 cumulative IPC: 0.14014 (Simulation time: 0 hr 8 min 8 sec) 
Heartbeat CPU  3 instructions:   71000002 cycles:  112844401 heartbeat IPC: 0.15124 cumulative IPC: 0.15188 (Simulation time: 0 hr 8 min 8 sec) 
Heartbeat CPU  2 instructions:   62000003 cycles:  113114400 heartbeat IPC: 0.12257 cumulative IPC: 0.12877 (Simulation time: 0 hr 8 min 9 sec) 
Heartbeat CPU  1 instructions:   61000000 cycles:  113981209 heartbeat IPC: 0.11916 cumulative IPC: 0.12025 (Simulation time: 0 hr 8 min 10 sec) 
Heartbeat CPU  0 instructions:   65000002 cycles:  118930847 heartbeat IPC: 0.16268 cumulative IPC: 0.14158 (Simulation time: 0 hr 8 min 17 sec) 
Heartbeat CPU  3 instructions:   72000000 cycles:  119466423 heartbeat IPC: 0.15101 cumulative IPC: 0.15182 (Simulation time: 0 hr 8 min 18 sec) 
Heartbeat CPU  2 instructions:   63000002 cycles:  121357238 heartbeat IPC: 0.12132 cumulative IPC: 0.12815 (Simulation time: 0 hr 8 min 21 sec) 
Heartbeat CPU  1 instructions:   62000002 cycles:  122300480 heartbeat IPC: 0.12020 cumulative IPC: 0.12025 (Simulation time: 0 hr 8 min 22 sec) 
Heartbeat CPU  0 instructions:   66000003 cycles:  125119658 heartbeat IPC: 0.16158 cumulative IPC: 0.14278 (Simulation time: 0 hr 8 min 27 sec) 
Heartbeat CPU  3 instructions:   73000002 cycles:  126047918 heartbeat IPC: 0.15194 cumulative IPC: 0.15182 (Simulation time: 0 hr 8 min 29 sec) 
Heartbeat CPU  1 instructions:   63000000 cycles:  126968621 heartbeat IPC: 0.21422 cumulative IPC: 0.12445 (Simulation time: 0 hr 8 min 31 sec) 
Heartbeat CPU  2 instructions:   64000000 cycles:  129636487 heartbeat IPC: 0.12078 cumulative IPC: 0.12758 (Simulation time: 0 hr 8 min 35 sec) 
Heartbeat CPU  0 instructions:   67000002 cycles:  131299347 heartbeat IPC: 0.16182 cumulative IPC: 0.14386 (Simulation time: 0 hr 8 min 38 sec) 
Heartbeat CPU  1 instructions:   64000000 cycles:  132161826 heartbeat IPC: 0.19256 cumulative IPC: 0.12767 (Simulation time: 0 hr 8 min 39 sec) 
Heartbeat CPU  3 instructions:   74000000 cycles:  132663110 heartbeat IPC: 0.15117 cumulative IPC: 0.15179 (Simulation time: 0 hr 8 min 40 sec) 
Heartbeat CPU  0 instructions:   68000000 cycles:  137585726 heartbeat IPC: 0.15907 cumulative IPC: 0.14469 (Simulation time: 0 hr 8 min 47 sec) 
Heartbeat CPU  2 instructions:   65000002 cycles:  137868880 heartbeat IPC: 0.12147 cumulative IPC: 0.12714 (Simulation time: 0 hr 8 min 48 sec) 
Heartbeat CPU  3 instructions:   75000003 cycles:  139269508 heartbeat IPC: 0.15137 cumulative IPC: 0.15176 (Simulation time: 0 hr 8 min 50 sec) 
Heartbeat CPU  1 instructions:   65000001 cycles:  140200208 heartbeat IPC: 0.12440 cumulative IPC: 0.12745 (Simulation time: 0 hr 8 min 51 sec) 
Heartbeat CPU  0 instructions:   69000000 cycles:  143917671 heartbeat IPC: 0.15793 cumulative IPC: 0.14538 (Simulation time: 0 hr 8 min 57 sec) 
Heartbeat CPU  3 instructions:   76000000 cycles:  145930073 heartbeat IPC: 0.15014 cumulative IPC: 0.15167 (Simulation time: 0 hr 8 min 59 sec) 
Heartbeat CPU  2 instructions:   66000003 cycles:  146087158 heartbeat IPC: 0.12168 cumulative IPC: 0.12678 (Simulation time: 0 hr 9 min 0 sec) 
Heartbeat CPU  1 instructions:   66000003 cycles:  148381266 heartbeat IPC: 0.12223 cumulative IPC: 0.12711 (Simulation time: 0 hr 9 min 3 sec) 
Heartbeat CPU  0 instructions:   70000000 cycles:  149583448 heartbeat IPC: 0.17650 cumulative IPC: 0.14677 (Simulation time: 0 hr 9 min 5 sec) 
Heartbeat CPU  3 instructions:   77000003 cycles:  152576387 heartbeat IPC: 0.15046 cumulative IPC: 0.15161 (Simulation time: 0 hr 9 min 10 sec) 
Heartbeat CPU  2 instructions:   67000003 cycles:  154334500 heartbeat IPC: 0.12125 cumulative IPC: 0.12643 (Simulation time: 0 hr 9 min 12 sec) 
Heartbeat CPU  1 instructions:   67000000 cycles:  156581803 heartbeat IPC: 0.12194 cumulative IPC: 0.12679 (Simulation time: 0 hr 9 min 15 sec) 
Heartbeat CPU  0 instructions:   71000001 cycles:  157022352 heartbeat IPC: 0.13443 cumulative IPC: 0.14609 (Simulation time: 0 hr 9 min 16 sec) 
Heartbeat CPU  3 instructions:   78000001 cycles:  159226933 heartbeat IPC: 0.15036 cumulative IPC: 0.15155 (Simulation time: 0 hr 9 min 19 sec) 
Heartbeat CPU  2 instructions:   68000000 cycles:  162609308 heartbeat IPC: 0.12085 cumulative IPC: 0.12610 (Simulation time: 0 hr 9 min 24 sec) 
Heartbeat CPU  0 instructions:   72000000 cycles:  164622511 heartbeat IPC: 0.13158 cumulative IPC: 0.14531 (Simulation time: 0 hr 9 min 27 sec) 
Heartbeat CPU  1 instructions:   68000000 cycles:  164837986 heartbeat IPC: 0.12112 cumulative IPC: 0.12647 (Simulation time: 0 hr 9 min 27 sec) 
Heartbeat CPU  3 instructions:   79000003 cycles:  165895824 heartbeat IPC: 0.14995 cumulative IPC: 0.15148 (Simulation time: 0 hr 9 min 29 sec) 
Heartbeat CPU  2 instructions:   69000002 cycles:  171222415 heartbeat IPC: 0.11610 cumulative IPC: 0.12552 (Simulation time: 0 hr 9 min 37 sec) 
Heartbeat CPU  0 instructions:   73000002 cycles:  171988284 heartbeat IPC: 0.13576 cumulative IPC: 0.14484 (Simulation time: 0 hr 9 min 38 sec) 
Heartbeat CPU  3 instructions:   80000000 cycles:  172555925 heartbeat IPC: 0.15015 cumulative IPC: 0.15142 (Simulation time: 0 hr 9 min 39 sec) 
Heartbeat CPU  1 instructions:   69000000 cycles:  173163563 heartbeat IPC: 0.12011 cumulative IPC: 0.12611 (Simulation time: 0 hr 9 min 39 sec) 
Heartbeat CPU  3 instructions:   81000001 cycles:  179217057 heartbeat IPC: 0.15012 cumulative IPC: 0.15136 (Simulation time: 0 hr 9 min 48 sec) 
Heartbeat CPU  0 instructions:   74000001 cycles:  179222906 heartbeat IPC: 0.13822 cumulative IPC: 0.14454 (Simulation time: 0 hr 9 min 48 sec) 
Heartbeat CPU  2 instructions:   70000003 cycles:  179504348 heartbeat IPC: 0.12074 cumulative IPC: 0.12527 (Simulation time: 0 hr 9 min 49 sec) 
Heartbeat CPU  1 instructions:   70000000 cycles:  181441346 heartbeat IPC: 0.12081 cumulative IPC: 0.12584 (Simulation time: 0 hr 9 min 52 sec) 
Heartbeat CPU  3 instructions:   82000002 cycles:  185911569 heartbeat IPC: 0.14938 cumulative IPC: 0.15128 (Simulation time: 0 hr 9 min 58 sec) 
Heartbeat CPU  0 instructions:   75000001 cycles:  186372607 heartbeat IPC: 0.13987 cumulative IPC: 0.14433 (Simulation time: 0 hr 9 min 59 sec) 
Heartbeat CPU  2 instructions:   71000003 cycles:  187812581 heartbeat IPC: 0.12036 cumulative IPC: 0.12502 (Simulation time: 0 hr 10 min 1 sec) 
Heartbeat CPU  1 instructions:   71000000 cycles:  189675868 heartbeat IPC: 0.12144 cumulative IPC: 0.12562 (Simulation time: 0 hr 10 min 4 sec) 
Heartbeat CPU  3 instructions:   83000002 cycles:  192581187 heartbeat IPC: 0.14993 cumulative IPC: 0.15123 (Simulation time: 0 hr 10 min 8 sec) 
Heartbeat CPU  0 instructions:   76000000 cycles:  193223952 heartbeat IPC: 0.14596 cumulative IPC: 0.14440 (Simulation time: 0 hr 10 min 9 sec) 
Heartbeat CPU  2 instructions:   72000000 cycles:  196169136 heartbeat IPC: 0.11967 cumulative IPC: 0.12477 (Simulation time: 0 hr 10 min 13 sec) 
Heartbeat CPU  1 instructions:   72000000 cycles:  198001164 heartbeat IPC: 0.12012 cumulative IPC: 0.12536 (Simulation time: 0 hr 10 min 16 sec) 
Heartbeat CPU  3 instructions:   84000000 cycles:  199268201 heartbeat IPC: 0.14954 cumulative IPC: 0.15116 (Simulation time: 0 hr 10 min 19 sec) 
Heartbeat CPU  0 instructions:   77000002 cycles:  199637745 heartbeat IPC: 0.15591 cumulative IPC: 0.14482 (Simulation time: 0 hr 10 min 19 sec) 
Heartbeat CPU  2 instructions:   73000000 cycles:  201114120 heartbeat IPC: 0.20223 cumulative IPC: 0.12691 (Simulation time: 0 hr 10 min 22 sec) 
Heartbeat CPU  0 instructions:   78000003 cycles:  205915210 heartbeat IPC: 0.15930 cumulative IPC: 0.14531 (Simulation time: 0 hr 10 min 29 sec) 
Heartbeat CPU  3 instructions:   85000000 cycles:  205943322 heartbeat IPC: 0.14981 cumulative IPC: 0.15112 (Simulation time: 0 hr 10 min 29 sec) 
Heartbeat CPU  1 instructions:   73000003 cycles:  206328414 heartbeat IPC: 0.12009 cumulative IPC: 0.12512 (Simulation time: 0 hr 10 min 30 sec) 
Heartbeat CPU  2 instructions:   74000001 cycles:  206532623 heartbeat IPC: 0.18455 cumulative IPC: 0.12861 (Simulation time: 0 hr 10 min 30 sec) 
Heartbeat CPU  0 instructions:   79000002 cycles:  211839245 heartbeat IPC: 0.16880 cumulative IPC: 0.14605 (Simulation time: 0 hr 10 min 38 sec) 
Heartbeat CPU  3 instructions:   86000002 cycles:  212659553 heartbeat IPC: 0.14889 cumulative IPC: 0.15104 (Simulation time: 0 hr 10 min 40 sec) 
Heartbeat CPU  2 instructions:   75000001 cycles:  213396640 heartbeat IPC: 0.14569 cumulative IPC: 0.12922 (Simulation time: 0 hr 10 min 41 sec) 
Heartbeat CPU  1 instructions:   74000000 cycles:  214876499 heartbeat IPC: 0.11698 cumulative IPC: 0.12476 (Simulation time: 0 hr 10 min 43 sec) 
Heartbeat CPU  0 instructions:   80000000 cycles:  217682122 heartbeat IPC: 0.17115 cumulative IPC: 0.14680 (Simulation time: 0 hr 10 min 47 sec) 
Heartbeat CPU  3 instructions:   87000000 cycles:  219359263 heartbeat IPC: 0.14926 cumulative IPC: 0.15098 (Simulation time: 0 hr 10 min 49 sec) 
Heartbeat CPU  2 instructions:   76000000 cycles:  219901423 heartbeat IPC: 0.15373 cumulative IPC: 0.13003 (Simulation time: 0 hr 10 min 50 sec) 
Heartbeat CPU  1 instructions:   75000001 cycles:  223225169 heartbeat IPC: 0.11978 cumulative IPC: 0.12455 (Simulation time: 0 hr 10 min 55 sec) 
Heartbeat CPU  0 instructions:   81000000 cycles:  223607137 heartbeat IPC: 0.16878 cumulative IPC: 0.14744 (Simulation time: 0 hr 10 min 56 sec) 
Heartbeat CPU  3 instructions:   88000000 cycles:  225979285 heartbeat IPC: 0.15106 cumulative IPC: 0.15098 (Simulation time: 0 hr 10 min 59 sec) 
Heartbeat CPU  2 instructions:   77000001 cycles:  226678735 heartbeat IPC: 0.14755 cumulative IPC: 0.13061 (Simulation time: 0 hr 11 min 0 sec) 
Heartbeat CPU  0 instructions:   82000003 cycles:  229524737 heartbeat IPC: 0.16899 cumulative IPC: 0.14806 (Simulation time: 0 hr 11 min 4 sec) 
Heartbeat CPU  1 instructions:   76000000 cycles:  231607808 heartbeat IPC: 0.11929 cumulative IPC: 0.12434 (Simulation time: 0 hr 11 min 7 sec) 
Heartbeat CPU  3 instructions:   89000003 cycles:  232600354 heartbeat IPC: 0.15103 cumulative IPC: 0.15098 (Simulation time: 0 hr 11 min 9 sec) 
Heartbeat CPU  2 instructions:   78000000 cycles:  233870470 heartbeat IPC: 0.13905 cumulative IPC: 0.13090 (Simulation time: 0 hr 11 min 10 sec) 
Heartbeat CPU  0 instructions:   83000003 cycles:  235615903 heartbeat IPC: 0.16417 cumulative IPC: 0.14852 (Simulation time: 0 hr 11 min 13 sec) 
Heartbeat CPU  1 instructions:   77000000 cycles:  238912218 heartbeat IPC: 0.13690 cumulative IPC: 0.12477 (Simulation time: 0 hr 11 min 18 sec) 
Heartbeat CPU  3 instructions:   90000001 cycles:  239260080 heartbeat IPC: 0.15016 cumulative IPC: 0.15096 (Simulation time: 0 hr 11 min 19 sec) 
Heartbeat CPU  2 instructions:   79000003 cycles:  240459443 heartbeat IPC: 0.15177 cumulative IPC: 0.13153 (Simulation time: 0 hr 11 min 21 sec) 
Heartbeat CPU  0 instructions:   84000000 cycles:  241622046 heartbeat IPC: 0.16650 cumulative IPC: 0.14901 (Simulation time: 0 hr 11 min 23 sec) 
Heartbeat CPU  1 instructions:   78000002 cycles:  243338098 heartbeat IPC: 0.22594 cumulative IPC: 0.12679 (Simulation time: 0 hr 11 min 26 sec) 
Heartbeat CPU  3 instructions:   91000003 cycles:  245908710 heartbeat IPC: 0.15041 cumulative IPC: 0.15094 (Simulation time: 0 hr 11 min 30 sec) 
Heartbeat CPU  2 instructions:   80000000 cycles:  247036161 heartbeat IPC: 0.15205 cumulative IPC: 0.13213 (Simulation time: 0 hr 11 min 32 sec) 
Heartbeat CPU  0 instructions:   85000003 cycles:  247616848 heartbeat IPC: 0.16681 cumulative IPC: 0.14949 (Simulation time: 0 hr 11 min 33 sec) 
Heartbeat CPU  1 instructions:   79000003 cycles:  249351590 heartbeat IPC: 0.16629 cumulative IPC: 0.12784 (Simulation time: 0 hr 11 min 35 sec) 
Heartbeat CPU  3 instructions:   92000000 cycles:  252537943 heartbeat IPC: 0.15085 cumulative IPC: 0.15094 (Simulation time: 0 hr 11 min 40 sec) 
Heartbeat CPU  0 instructions:   86000002 cycles:  253682412 heartbeat IPC: 0.16486 cumulative IPC: 0.14989 (Simulation time: 0 hr 11 min 41 sec) 
Heartbeat CPU  2 instructions:   81000002 cycles:  253775126 heartbeat IPC: 0.14839 cumulative IPC: 0.13260 (Simulation time: 0 hr 11 min 42 sec) 
Heartbeat CPU  1 instructions:   80000000 cycles:  257456376 heartbeat IPC: 0.12338 cumulative IPC: 0.12769 (Simulation time: 0 hr 11 min 47 sec) 
Heartbeat CPU  3 instructions:   93000001 cycles:  259118284 heartbeat IPC: 0.15197 cumulative IPC: 0.15097 (Simulation time: 0 hr 11 min 49 sec) 
Heartbeat CPU  0 instructions:   87000000 cycles:  259762977 heartbeat IPC: 0.16446 cumulative IPC: 0.15026 (Simulation time: 0 hr 11 min 50 sec) 
Heartbeat CPU  2 instructions:   82000001 cycles:  260857582 heartbeat IPC: 0.14119 cumulative IPC: 0.13286 (Simulation time: 0 hr 11 min 52 sec) 
Heartbeat CPU  1 instructions:   81000001 cycles:  265621304 heartbeat IPC: 0.12248 cumulative IPC: 0.12751 (Simulation time: 0 hr 11 min 59 sec) 
Heartbeat CPU  0 instructions:   88000000 cycles:  265698005 heartbeat IPC: 0.16849 cumulative IPC: 0.15071 (Simulation time: 0 hr 11 min 59 sec) 
Heartbeat CPU  3 instructions:   94000002 cycles:  265748208 heartbeat IPC: 0.15083 cumulative IPC: 0.15096 (Simulation time: 0 hr 11 min 59 sec) 
Heartbeat CPU  2 instructions:   83000000 cycles:  267836496 heartbeat IPC: 0.14329 cumulative IPC: 0.13316 (Simulation time: 0 hr 12 min 2 sec) 
Heartbeat CPU  0 instructions:   89000001 cycles:  271744484 heartbeat IPC: 0.16539 cumulative IPC: 0.15107 (Simulation time: 0 hr 12 min 8 sec) 
Heartbeat CPU  3 instructions:   95000002 cycles:  272367515 heartbeat IPC: 0.15107 cumulative IPC: 0.15096 (Simulation time: 0 hr 12 min 8 sec) 
Heartbeat CPU  1 instructions:   82000002 cycles:  273727685 heartbeat IPC: 0.12336 cumulative IPC: 0.12738 (Simulation time: 0 hr 12 min 10 sec) 
Heartbeat CPU  2 instructions:   84000000 cycles:  275284546 heartbeat IPC: 0.13426 cumulative IPC: 0.13319 (Simulation time: 0 hr 12 min 13 sec) 
Heartbeat CPU  0 instructions:   90000000 cycles:  277764468 heartbeat IPC: 0.16611 cumulative IPC: 0.15142 (Simulation time: 0 hr 12 min 16 sec) 
Heartbeat CPU  3 instructions:   96000000 cycles:  279002653 heartbeat IPC: 0.15071 cumulative IPC: 0.15096 (Simulation time: 0 hr 12 min 18 sec) 
Heartbeat CPU  2 instructions:   85000002 cycles:  281381455 heartbeat IPC: 0.16402 cumulative IPC: 0.13392 (Simulation time: 0 hr 12 min 22 sec) 
Heartbeat CPU  1 instructions:   83000003 cycles:  281937462 heartbeat IPC: 0.12181 cumulative IPC: 0.12720 (Simulation time: 0 hr 12 min 23 sec) 
Heartbeat CPU  0 instructions:   91000003 cycles:  283835849 heartbeat IPC: 0.16471 cumulative IPC: 0.15173 (Simulation time: 0 hr 12 min 26 sec) 
Heartbeat CPU  3 instructions:   97000002 cycles:  285654155 heartbeat IPC: 0.15034 cumulative IPC: 0.15094 (Simulation time: 0 hr 12 min 28 sec) 
Heartbeat CPU  2 instructions:   86000002 cycles:  287066338 heartbeat IPC: 0.17591 cumulative IPC: 0.13482 (Simulation time: 0 hr 12 min 30 sec) 
Heartbeat CPU  0 instructions:   92000000 cycles:  289822737 heartbeat IPC: 0.16703 cumulative IPC: 0.15207 (Simulation time: 0 hr 12 min 35 sec) 
Heartbeat CPU  1 instructions:   84000000 cycles:  290156821 heartbeat IPC: 0.12166 cumulative IPC: 0.12703 (Simulation time: 0 hr 12 min 35 sec) 
Heartbeat CPU  3 instructions:   98000001 cycles:  292325711 heartbeat IPC: 0.14989 cumulative IPC: 0.15092 (Simulation time: 0 hr 12 min 38 sec) 
Heartbeat CPU  2 instructions:   87000003 cycles:  292770536 heartbeat IPC: 0.17531 cumulative IPC: 0.13567 (Simulation time: 0 hr 12 min 39 sec) 
Heartbeat CPU  0 instructions:   93000003 cycles:  295819661 heartbeat IPC: 0.16675 cumulative IPC: 0.15239 (Simulation time: 0 hr 12 min 44 sec) 
Heartbeat CPU  1 instructions:   85000001 cycles:  298348643 heartbeat IPC: 0.12207 cumulative IPC: 0.12688 (Simulation time: 0 hr 12 min 47 sec) 
Heartbeat CPU  2 instructions:   88000000 cycles:  298427489 heartbeat IPC: 0.17677 cumulative IPC: 0.13652 (Simulation time: 0 hr 12 min 47 sec) 
Heartbeat CPU  3 instructions:   99000000 cycles:  298965065 heartbeat IPC: 0.15062 cumulative IPC: 0.15091 (Simulation time: 0 hr 12 min 48 sec) 
Heartbeat CPU  0 instructions:   94000003 cycles:  303367625 heartbeat IPC: 0.13249 cumulative IPC: 0.15186 (Simulation time: 0 hr 12 min 54 sec) 
Heartbeat CPU  2 instructions:   89000001 cycles:  304037893 heartbeat IPC: 0.17824 cumulative IPC: 0.13735 (Simulation time: 0 hr 12 min 55 sec) 
*** Reached end of trace for Core: 3 Repeating trace: /data3/CLOUD9/traces/cloud9_phase3_core3.trace.xz
Heartbeat CPU  3 instructions:  100000000 cycles:  305639243 heartbeat IPC: 0.14983 cumulative IPC: 0.15088 (Simulation time: 0 hr 12 min 58 sec) 
Heartbeat CPU  1 instructions:   86000000 cycles:  306501454 heartbeat IPC: 0.12266 cumulative IPC: 0.12676 (Simulation time: 0 hr 12 min 59 sec) 
Heartbeat CPU  0 instructions:   95000000 cycles:  307776936 heartbeat IPC: 0.22679 cumulative IPC: 0.15302 (Simulation time: 0 hr 13 min 2 sec) 
Heartbeat CPU  2 instructions:   90000002 cycles:  310305593 heartbeat IPC: 0.15955 cumulative IPC: 0.13783 (Simulation time: 0 hr 13 min 6 sec) 
Heartbeat CPU  3 instructions:  101000002 cycles:  312134404 heartbeat IPC: 0.15396 cumulative IPC: 0.15095 (Simulation time: 0 hr 13 min 9 sec) 
Heartbeat CPU  0 instructions:   96000000 cycles:  314036164 heartbeat IPC: 0.15976 cumulative IPC: 0.15316 (Simulation time: 0 hr 13 min 11 sec) 
Heartbeat CPU  1 instructions:   87000002 cycles:  314754620 heartbeat IPC: 0.12117 cumulative IPC: 0.12660 (Simulation time: 0 hr 13 min 12 sec) 
Heartbeat CPU  2 instructions:   91000000 cycles:  316652196 heartbeat IPC: 0.15756 cumulative IPC: 0.13826 (Simulation time: 0 hr 13 min 15 sec) 
Heartbeat CPU  3 instructions:  102000002 cycles:  318607455 heartbeat IPC: 0.15449 cumulative IPC: 0.15103 (Simulation time: 0 hr 13 min 18 sec) 
Heartbeat CPU  0 instructions:   97000001 cycles:  320729592 heartbeat IPC: 0.14940 cumulative IPC: 0.15308 (Simulation time: 0 hr 13 min 22 sec) 
Heartbeat CPU  1 instructions:   88000000 cycles:  322990348 heartbeat IPC: 0.12142 cumulative IPC: 0.12646 (Simulation time: 0 hr 13 min 26 sec) 
Heartbeat CPU  2 instructions:   92000000 cycles:  323092266 heartbeat IPC: 0.15528 cumulative IPC: 0.13862 (Simulation time: 0 hr 13 min 26 sec) 
Heartbeat CPU  0 instructions:   98000001 cycles:  324438045 heartbeat IPC: 0.26965 cumulative IPC: 0.15451 (Simulation time: 0 hr 13 min 28 sec) 
Heartbeat CPU  3 instructions:  103000002 cycles:  325057892 heartbeat IPC: 0.15503 cumulative IPC: 0.15112 (Simulation time: 0 hr 13 min 29 sec) 
Heartbeat CPU  2 instructions:   93000001 cycles:  328786272 heartbeat IPC: 0.17562 cumulative IPC: 0.13931 (Simulation time: 0 hr 13 min 34 sec) 
Heartbeat CPU  1 instructions:   89000001 cycles:  331403832 heartbeat IPC: 0.11886 cumulative IPC: 0.12626 (Simulation time: 0 hr 13 min 38 sec) 
Heartbeat CPU  3 instructions:  104000000 cycles:  331554245 heartbeat IPC: 0.15393 cumulative IPC: 0.15117 (Simulation time: 0 hr 13 min 38 sec) 
Heartbeat CPU  0 instructions:   99000000 cycles:  331888030 heartbeat IPC: 0.13423 cumulative IPC: 0.15402 (Simulation time: 0 hr 13 min 39 sec) 
Heartbeat CPU  2 instructions:   94000000 cycles:  334360946 heartbeat IPC: 0.17938 cumulative IPC: 0.14002 (Simulation time: 0 hr 13 min 42 sec) 
*** Reached end of trace for Core: 0 Repeating trace: /data3/CLOUD9/traces/cloud9_phase3_core0.trace.xz
Heartbeat CPU  0 instructions:  100000000 cycles:  335421759 heartbeat IPC: 0.28299 cumulative IPC: 0.15548 (Simulation time: 0 hr 13 min 45 sec) 
Heartbeat CPU  3 instructions:  105000001 cycles:  338041453 heartbeat IPC: 0.15415 cumulative IPC: 0.15124 (Simulation time: 0 hr 13 min 49 sec) 
Heartbeat CPU  1 instructions:   90000002 cycles:  339644388 heartbeat IPC: 0.12135 cumulative IPC: 0.12613 (Simulation time: 0 hr 13 min 51 sec) 
Heartbeat CPU  2 instructions:   95000002 cycles:  340041621 heartbeat IPC: 0.17604 cumulative IPC: 0.14067 (Simulation time: 0 hr 13 min 52 sec) 
Heartbeat CPU  0 instructions:  101000003 cycles:  342535020 heartbeat IPC: 0.14058 cumulative IPC: 0.15515 (Simulation time: 0 hr 13 min 55 sec) 
Heartbeat CPU  3 instructions:  106000000 cycles:  344529162 heartbeat IPC: 0.15414 cumulative IPC: 0.15129 (Simulation time: 0 hr 13 min 58 sec) 
Heartbeat CPU  2 instructions:   96000000 cycles:  345998733 heartbeat IPC: 0.16787 cumulative IPC: 0.14117 (Simulation time: 0 hr 14 min 1 sec) 
Heartbeat CPU  1 instructions:   91000003 cycles:  347973539 heartbeat IPC: 0.12006 cumulative IPC: 0.12597 (Simulation time: 0 hr 14 min 4 sec) 
Heartbeat CPU  0 instructions:  102000003 cycles:  349986209 heartbeat IPC: 0.13421 cumulative IPC: 0.15467 (Simulation time: 0 hr 14 min 7 sec) 
Heartbeat CPU  3 instructions:  107000000 cycles:  351026530 heartbeat IPC: 0.15391 cumulative IPC: 0.15135 (Simulation time: 0 hr 14 min 9 sec) 
Heartbeat CPU  2 instructions:   97000002 cycles:  351873249 heartbeat IPC: 0.17023 cumulative IPC: 0.14169 (Simulation time: 0 hr 14 min 10 sec) 
Heartbeat CPU  1 instructions:   92000000 cycles:  354310653 heartbeat IPC: 0.15780 cumulative IPC: 0.12658 (Simulation time: 0 hr 14 min 14 sec) 
Heartbeat CPU  0 instructions:  103000002 cycles:  357214577 heartbeat IPC: 0.13834 cumulative IPC: 0.15432 (Simulation time: 0 hr 14 min 19 sec) 
Heartbeat CPU  3 instructions:  108000000 cycles:  357536852 heartbeat IPC: 0.15360 cumulative IPC: 0.15139 (Simulation time: 0 hr 14 min 20 sec) 
Heartbeat CPU  2 instructions:   98000000 cycles:  358221105 heartbeat IPC: 0.15753 cumulative IPC: 0.14199 (Simulation time: 0 hr 14 min 21 sec) 
Heartbeat CPU  1 instructions:   93000002 cycles:  358922732 heartbeat IPC: 0.21682 cumulative IPC: 0.12782 (Simulation time: 0 hr 14 min 22 sec) 
Heartbeat CPU  0 instructions:  104000000 cycles:  363773818 heartbeat IPC: 0.15246 cumulative IPC: 0.15428 (Simulation time: 0 hr 14 min 30 sec) 
Heartbeat CPU  3 instructions:  109000002 cycles:  364074455 heartbeat IPC: 0.15296 cumulative IPC: 0.15142 (Simulation time: 0 hr 14 min 31 sec) 
Heartbeat CPU  2 instructions:   99000001 cycles:  364378292 heartbeat IPC: 0.16241 cumulative IPC: 0.14236 (Simulation time: 0 hr 14 min 31 sec) 
Heartbeat CPU  1 instructions:   94000003 cycles:  365878912 heartbeat IPC: 0.14376 cumulative IPC: 0.12814 (Simulation time: 0 hr 14 min 34 sec) 
Heartbeat CPU  0 instructions:  105000001 cycles:  369718599 heartbeat IPC: 0.16821 cumulative IPC: 0.15452 (Simulation time: 0 hr 14 min 40 sec) 
*** Reached end of trace for Core: 2 Repeating trace: /data3/CLOUD9/traces/cloud9_phase3_core2.trace.xz
Heartbeat CPU  2 instructions:  100000000 cycles:  370390961 heartbeat IPC: 0.16632 cumulative IPC: 0.14277 (Simulation time: 0 hr 14 min 41 sec) 
Heartbeat CPU  3 instructions:  110000003 cycles:  370591951 heartbeat IPC: 0.15343 cumulative IPC: 0.15146 (Simulation time: 0 hr 14 min 41 sec) 
Heartbeat CPU  1 instructions:   95000001 cycles:  374029961 heartbeat IPC: 0.12268 cumulative IPC: 0.12801 (Simulation time: 0 hr 14 min 47 sec) 
Heartbeat CPU  2 instructions:  101000001 cycles:  375851860 heartbeat IPC: 0.18312 cumulative IPC: 0.14339 (Simulation time: 0 hr 14 min 50 sec) 
Heartbeat CPU  0 instructions:  106000002 cycles:  376535042 heartbeat IPC: 0.14670 cumulative IPC: 0.15437 (Simulation time: 0 hr 14 min 51 sec) 
Heartbeat CPU  3 instructions:  111000000 cycles:  377094524 heartbeat IPC: 0.15378 cumulative IPC: 0.15150 (Simulation time: 0 hr 14 min 52 sec) 
Heartbeat CPU  1 instructions:   96000000 cycles:  382235294 heartbeat IPC: 0.12187 cumulative IPC: 0.12787 (Simulation time: 0 hr 14 min 59 sec) 
Heartbeat CPU  0 instructions:  107000003 cycles:  383321823 heartbeat IPC: 0.14735 cumulative IPC: 0.15424 (Simulation time: 0 hr 15 min 1 sec) 
Heartbeat CPU  3 instructions:  112000000 cycles:  383608782 heartbeat IPC: 0.15351 cumulative IPC: 0.15154 (Simulation time: 0 hr 15 min 1 sec) 
Heartbeat CPU  2 instructions:  102000002 cycles:  383688590 heartbeat IPC: 0.12760 cumulative IPC: 0.14305 (Simulation time: 0 hr 15 min 1 sec) 
Heartbeat CPU  0 instructions:  108000000 cycles:  390070991 heartbeat IPC: 0.14817 cumulative IPC: 0.15413 (Simulation time: 0 hr 15 min 11 sec) 
Heartbeat CPU  3 instructions:  113000001 cycles:  390149922 heartbeat IPC: 0.15288 cumulative IPC: 0.15156 (Simulation time: 0 hr 15 min 11 sec) 
Heartbeat CPU  1 instructions:   97000001 cycles:  390457225 heartbeat IPC: 0.12163 cumulative IPC: 0.12773 (Simulation time: 0 hr 15 min 11 sec) 
Heartbeat CPU  2 instructions:  103000002 cycles:  391863749 heartbeat IPC: 0.12232 cumulative IPC: 0.14259 (Simulation time: 0 hr 15 min 13 sec) 
Heartbeat CPU  0 instructions:  109000003 cycles:  396646063 heartbeat IPC: 0.15209 cumulative IPC: 0.15409 (Simulation time: 0 hr 15 min 20 sec) 
Heartbeat CPU  3 instructions:  114000001 cycles:  396650366 heartbeat IPC: 0.15384 cumulative IPC: 0.15160 (Simulation time: 0 hr 15 min 20 sec) 
Heartbeat CPU  1 instructions:   98000001 cycles:  398742826 heartbeat IPC: 0.12069 cumulative IPC: 0.12758 (Simulation time: 0 hr 15 min 23 sec) 
Heartbeat CPU  2 instructions:  104000000 cycles:  400052517 heartbeat IPC: 0.12212 cumulative IPC: 0.14215 (Simulation time: 0 hr 15 min 25 sec) 
Heartbeat CPU  0 instructions:  110000000 cycles:  402639912 heartbeat IPC: 0.16684 cumulative IPC: 0.15429 (Simulation time: 0 hr 15 min 29 sec) 
Heartbeat CPU  3 instructions:  115000003 cycles:  403137409 heartbeat IPC: 0.15415 cumulative IPC: 0.15164 (Simulation time: 0 hr 15 min 30 sec) 
Heartbeat CPU  1 instructions:   99000000 cycles:  407021759 heartbeat IPC: 0.12079 cumulative IPC: 0.12743 (Simulation time: 0 hr 15 min 36 sec) 
Heartbeat CPU  2 instructions:  105000003 cycles:  408316369 heartbeat IPC: 0.12101 cumulative IPC: 0.14170 (Simulation time: 0 hr 15 min 38 sec) 
Heartbeat CPU  0 instructions:  111000000 cycles:  409278405 heartbeat IPC: 0.15064 cumulative IPC: 0.15423 (Simulation time: 0 hr 15 min 39 sec) 
Heartbeat CPU  3 instructions:  116000000 cycles:  409628906 heartbeat IPC: 0.15405 cumulative IPC: 0.15168 (Simulation time: 0 hr 15 min 40 sec) 
*** Reached end of trace for Core: 1 Repeating trace: /data3/CLOUD9/traces/cloud9_phase3_core1.trace.xz
Heartbeat CPU  1 instructions:  100000000 cycles:  415276095 heartbeat IPC: 0.12115 cumulative IPC: 0.12730 (Simulation time: 0 hr 15 min 47 sec) 
Heartbeat CPU  3 instructions:  117000001 cycles:  416141030 heartbeat IPC: 0.15356 cumulative IPC: 0.15171 (Simulation time: 0 hr 15 min 49 sec) 
Heartbeat CPU  0 instructions:  112000000 cycles:  416510831 heartbeat IPC: 0.13827 cumulative IPC: 0.15394 (Simulation time: 0 hr 15 min 49 sec) 
Heartbeat CPU  2 instructions:  106000002 cycles:  416594251 heartbeat IPC: 0.12080 cumulative IPC: 0.14126 (Simulation time: 0 hr 15 min 49 sec) 
Heartbeat CPU  3 instructions:  118000002 cycles:  422652362 heartbeat IPC: 0.15358 cumulative IPC: 0.15175 (Simulation time: 0 hr 15 min 58 sec) 
Heartbeat CPU  0 instructions:  113000000 cycles:  422920439 heartbeat IPC: 0.15602 cumulative IPC: 0.15397 (Simulation time: 0 hr 15 min 58 sec) 
Heartbeat CPU  1 instructions:  101000000 cycles:  423544634 heartbeat IPC: 0.12094 cumulative IPC: 0.12717 (Simulation time: 0 hr 15 min 59 sec) 
Heartbeat CPU  2 instructions:  107000003 cycles:  424835929 heartbeat IPC: 0.12133 cumulative IPC: 0.14085 (Simulation time: 0 hr 16 min 1 sec) 
Heartbeat CPU  3 instructions:  119000001 cycles:  429170205 heartbeat IPC: 0.15342 cumulative IPC: 0.15177 (Simulation time: 0 hr 16 min 7 sec) 
Heartbeat CPU  0 instructions:  114000001 cycles:  429362400 heartbeat IPC: 0.15523 cumulative IPC: 0.15399 (Simulation time: 0 hr 16 min 7 sec) 
Heartbeat CPU  1 instructions:  102000001 cycles:  431926020 heartbeat IPC: 0.11931 cumulative IPC: 0.12701 (Simulation time: 0 hr 16 min 11 sec) 
Heartbeat CPU  2 instructions:  108000000 cycles:  433025463 heartbeat IPC: 0.12211 cumulative IPC: 0.14047 (Simulation time: 0 hr 16 min 13 sec) 
Heartbeat CPU  3 instructions:  120000000 cycles:  435705468 heartbeat IPC: 0.15302 cumulative IPC: 0.15179 (Simulation time: 0 hr 16 min 16 sec) 
Heartbeat CPU  0 instructions:  115000001 cycles:  435783271 heartbeat IPC: 0.15574 cumulative IPC: 0.15402 (Simulation time: 0 hr 16 min 17 sec) 
Heartbeat CPU  1 instructions:  103000001 cycles:  440268010 heartbeat IPC: 0.11988 cumulative IPC: 0.12687 (Simulation time: 0 hr 16 min 23 sec) 
Heartbeat CPU  2 instructions:  109000000 cycles:  441227351 heartbeat IPC: 0.12192 cumulative IPC: 0.14011 (Simulation time: 0 hr 16 min 25 sec) 
Heartbeat CPU  3 instructions:  121000002 cycles:  442291835 heartbeat IPC: 0.15183 cumulative IPC: 0.15179 (Simulation time: 0 hr 16 min 26 sec) 
Heartbeat CPU  0 instructions:  116000000 cycles:  442302430 heartbeat IPC: 0.15339 cumulative IPC: 0.15401 (Simulation time: 0 hr 16 min 26 sec) 
Heartbeat CPU  1 instructions:  104000000 cycles:  444929011 heartbeat IPC: 0.21455 cumulative IPC: 0.12783 (Simulation time: 0 hr 16 min 31 sec) 
Heartbeat CPU  0 instructions:  117000000 cycles:  448109198 heartbeat IPC: 0.17221 cumulative IPC: 0.15425 (Simulation time: 0 hr 16 min 37 sec) 
Heartbeat CPU  3 instructions:  122000001 cycles:  448849554 heartbeat IPC: 0.15249 cumulative IPC: 0.15180 (Simulation time: 0 hr 16 min 38 sec) 
Heartbeat CPU  2 instructions:  110000001 cycles:  449477453 heartbeat IPC: 0.12121 cumulative IPC: 0.13975 (Simulation time: 0 hr 16 min 39 sec) 
Heartbeat CPU  1 instructions:  105000003 cycles:  450213709 heartbeat IPC: 0.18923 cumulative IPC: 0.12859 (Simulation time: 0 hr 16 min 41 sec) 
Heartbeat CPU  0 instructions:  118000000 cycles:  451466912 heartbeat IPC: 0.29782 cumulative IPC: 0.15538 (Simulation time: 0 hr 16 min 43 sec) 
Heartbeat CPU  3 instructions:  123000003 cycles:  455413297 heartbeat IPC: 0.15235 cumulative IPC: 0.15181 (Simulation time: 0 hr 16 min 49 sec) 
Heartbeat CPU  0 instructions:  119000000 cycles:  455896646 heartbeat IPC: 0.22575 cumulative IPC: 0.15610 (Simulation time: 0 hr 16 min 50 sec) 
Heartbeat CPU  2 instructions:  111000003 cycles:  458097730 heartbeat IPC: 0.11601 cumulative IPC: 0.13928 (Simulation time: 0 hr 16 min 54 sec) 
Heartbeat CPU  1 instructions:  106000001 cycles:  458187122 heartbeat IPC: 0.12542 cumulative IPC: 0.12853 (Simulation time: 0 hr 16 min 54 sec) 
Heartbeat CPU  0 instructions:  120000000 cycles:  458399195 heartbeat IPC: 0.39959 cumulative IPC: 0.15750 (Simulation time: 0 hr 16 min 55 sec) 
Heartbeat CPU  3 instructions:  124000000 cycles:  461955705 heartbeat IPC: 0.15285 cumulative IPC: 0.15183 (Simulation time: 0 hr 17 min 0 sec) 
Heartbeat CPU  0 instructions:  121000001 cycles:  464747588 heartbeat IPC: 0.15752 cumulative IPC: 0.15750 (Simulation time: 0 hr 17 min 4 sec) 
Heartbeat CPU  2 instructions:  112000000 cycles:  466343192 heartbeat IPC: 0.12128 cumulative IPC: 0.13894 (Simulation time: 0 hr 17 min 7 sec) 
Heartbeat CPU  1 instructions:  107000000 cycles:  466362492 heartbeat IPC: 0.12232 cumulative IPC: 0.12842 (Simulation time: 0 hr 17 min 7 sec) 
Heartbeat CPU  3 instructions:  125000003 cycles:  468351637 heartbeat IPC: 0.15635 cumulative IPC: 0.15189 (Simulation time: 0 hr 17 min 10 sec) 
Heartbeat CPU  0 instructions:  122000000 cycles:  470738192 heartbeat IPC: 0.16693 cumulative IPC: 0.15762 (Simulation time: 0 hr 17 min 13 sec) 
Heartbeat CPU  1 instructions:  108000000 cycles:  474553317 heartbeat IPC: 0.12209 cumulative IPC: 0.12831 (Simulation time: 0 hr 17 min 19 sec) 
Heartbeat CPU  2 instructions:  113000001 cycles:  474642920 heartbeat IPC: 0.12049 cumulative IPC: 0.13860 (Simulation time: 0 hr 17 min 19 sec) 
Heartbeat CPU  3 instructions:  126000003 cycles:  474733607 heartbeat IPC: 0.15669 cumulative IPC: 0.15196 (Simulation time: 0 hr 17 min 19 sec) 
Heartbeat CPU  0 instructions:  123000001 cycles:  478449017 heartbeat IPC: 0.12969 cumulative IPC: 0.15715 (Simulation time: 0 hr 17 min 24 sec) 
Heartbeat CPU  3 instructions:  127000001 cycles:  481095943 heartbeat IPC: 0.15717 cumulative IPC: 0.15203 (Simulation time: 0 hr 17 min 28 sec) 
Heartbeat CPU  2 instructions:  114000000 cycles:  482004055 heartbeat IPC: 0.13585 cumulative IPC: 0.13856 (Simulation time: 0 hr 17 min 30 sec) 
Heartbeat CPU  1 instructions:  109000002 cycles:  482829205 heartbeat IPC: 0.12083 cumulative IPC: 0.12817 (Simulation time: 0 hr 17 min 31 sec) 
Heartbeat CPU  2 instructions:  115000003 cycles:  486534865 heartbeat IPC: 0.22071 cumulative IPC: 0.13936 (Simulation time: 0 hr 17 min 37 sec) 
Heartbeat CPU  0 instructions:  124000000 cycles:  487214877 heartbeat IPC: 0.11408 cumulative IPC: 0.15634 (Simulation time: 0 hr 17 min 38 sec) 
Heartbeat CPU  3 instructions:  128000000 cycles:  487435693 heartbeat IPC: 0.15773 cumulative IPC: 0.15211 (Simulation time: 0 hr 17 min 38 sec) 
Heartbeat CPU  1 instructions:  110000000 cycles:  491139032 heartbeat IPC: 0.12034 cumulative IPC: 0.12803 (Simulation time: 0 hr 17 min 44 sec) 
Heartbeat CPU  2 instructions:  116000000 cycles:  492523460 heartbeat IPC: 0.16698 cumulative IPC: 0.13971 (Simulation time: 0 hr 17 min 46 sec) 
Heartbeat CPU  3 instructions:  129000000 cycles:  493819797 heartbeat IPC: 0.15664 cumulative IPC: 0.15217 (Simulation time: 0 hr 17 min 48 sec) 
Heartbeat CPU  0 instructions:  125000000 cycles:  495527036 heartbeat IPC: 0.12031 cumulative IPC: 0.15570 (Simulation time: 0 hr 17 min 50 sec) 
Heartbeat CPU  1 instructions:  111000000 cycles:  499395747 heartbeat IPC: 0.12111 cumulative IPC: 0.12791 (Simulation time: 0 hr 17 min 55 sec) 
Heartbeat CPU  3 instructions:  130000000 cycles:  500219242 heartbeat IPC: 0.15626 cumulative IPC: 0.15223 (Simulation time: 0 hr 17 min 56 sec) 
Heartbeat CPU  2 instructions:  117000000 cycles:  500671974 heartbeat IPC: 0.12272 cumulative IPC: 0.13942 (Simulation time: 0 hr 17 min 57 sec) 
Heartbeat CPU  0 instructions:  126000001 cycles:  503788826 heartbeat IPC: 0.12104 cumulative IPC: 0.15511 (Simulation time: 0 hr 18 min 1 sec) 
Heartbeat CPU  3 instructions:  131000001 cycles:  506624044 heartbeat IPC: 0.15613 cumulative IPC: 0.15228 (Simulation time: 0 hr 18 min 5 sec) 
Heartbeat CPU  1 instructions:  112000000 cycles:  507634938 heartbeat IPC: 0.12137 cumulative IPC: 0.12780 (Simulation time: 0 hr 18 min 7 sec) 
Heartbeat CPU  2 instructions:  118000001 cycles:  508874899 heartbeat IPC: 0.12191 cumulative IPC: 0.13913 (Simulation time: 0 hr 18 min 8 sec) 
Heartbeat CPU  0 instructions:  127000000 cycles:  512172883 heartbeat IPC: 0.11927 cumulative IPC: 0.15450 (Simulation time: 0 hr 18 min 13 sec) 
Heartbeat CPU  3 instructions:  132000000 cycles:  512978365 heartbeat IPC: 0.15737 cumulative IPC: 0.15234 (Simulation time: 0 hr 18 min 14 sec) 
Heartbeat CPU  1 instructions:  113000003 cycles:  515959177 heartbeat IPC: 0.12013 cumulative IPC: 0.12767 (Simulation time: 0 hr 18 min 18 sec) 
Heartbeat CPU  2 instructions:  119000002 cycles:  517069147 heartbeat IPC: 0.12204 cumulative IPC: 0.13884 (Simulation time: 0 hr 18 min 20 sec) 
Heartbeat CPU  0 instructions:  128000000 cycles:  517460546 heartbeat IPC: 0.18912 cumulative IPC: 0.15487 (Simulation time: 0 hr 18 min 21 sec) 
Heartbeat CPU  3 instructions:  133000000 cycles:  519380607 heartbeat IPC: 0.15620 cumulative IPC: 0.15239 (Simulation time: 0 hr 18 min 24 sec) 
Heartbeat CPU  0 instructions:  129000001 cycles:  522230097 heartbeat IPC: 0.20966 cumulative IPC: 0.15539 (Simulation time: 0 hr 18 min 28 sec) 
Heartbeat CPU  1 instructions:  114000001 cycles:  524240135 heartbeat IPC: 0.12076 cumulative IPC: 0.12756 (Simulation time: 0 hr 18 min 32 sec) 
Heartbeat CPU  2 instructions:  120000000 cycles:  525301207 heartbeat IPC: 0.12148 cumulative IPC: 0.13856 (Simulation time: 0 hr 18 min 33 sec) 
Heartbeat CPU  3 instructions:  134000002 cycles:  525735625 heartbeat IPC: 0.15736 cumulative IPC: 0.15246 (Simulation time: 0 hr 18 min 34 sec) 
Heartbeat CPU  0 instructions:  130000002 cycles:  526985217 heartbeat IPC: 0.21030 cumulative IPC: 0.15591 (Simulation time: 0 hr 18 min 36 sec) 
Heartbeat CPU  0 instructions:  131000003 cycles:  531612072 heartbeat IPC: 0.21613 cumulative IPC: 0.15645 (Simulation time: 0 hr 18 min 44 sec) 
Heartbeat CPU  3 instructions:  135000002 cycles:  532167567 heartbeat IPC: 0.15547 cumulative IPC: 0.15249 (Simulation time: 0 hr 18 min 45 sec) 
Heartbeat CPU  1 instructions:  115000001 cycles:  532867656 heartbeat IPC: 0.11591 cumulative IPC: 0.12736 (Simulation time: 0 hr 18 min 46 sec) 
Heartbeat CPU  2 instructions:  121000001 cycles:  533556497 heartbeat IPC: 0.12113 cumulative IPC: 0.13828 (Simulation time: 0 hr 18 min 47 sec) 
Heartbeat CPU  0 instructions:  132000000 cycles:  535995655 heartbeat IPC: 0.22812 cumulative IPC: 0.15707 (Simulation time: 0 hr 18 min 51 sec) 
Heartbeat CPU  3 instructions:  136000000 cycles:  538541371 heartbeat IPC: 0.15689 cumulative IPC: 0.15255 (Simulation time: 0 hr 18 min 55 sec) 
Heartbeat CPU  0 instructions:  133000002 cycles:  540615164 heartbeat IPC: 0.21647 cumulative IPC: 0.15759 (Simulation time: 0 hr 18 min 58 sec) 
Heartbeat CPU  1 instructions:  116000000 cycles:  541174925 heartbeat IPC: 0.12038 cumulative IPC: 0.12725 (Simulation time: 0 hr 18 min 59 sec) 
Heartbeat CPU  2 instructions:  122000003 cycles:  541776100 heartbeat IPC: 0.12166 cumulative IPC: 0.13802 (Simulation time: 0 hr 19 min 0 sec) 
Heartbeat CPU  3 instructions:  137000000 cycles:  544927139 heartbeat IPC: 0.15660 cumulative IPC: 0.15260 (Simulation time: 0 hr 19 min 5 sec) 
Heartbeat CPU  0 instructions:  134000000 cycles:  545360853 heartbeat IPC: 0.21072 cumulative IPC: 0.15808 (Simulation time: 0 hr 19 min 6 sec) 
Heartbeat CPU  1 instructions:  117000000 cycles:  549531169 heartbeat IPC: 0.11967 cumulative IPC: 0.12713 (Simulation time: 0 hr 19 min 12 sec) 
Heartbeat CPU  2 instructions:  123000002 cycles:  549956106 heartbeat IPC: 0.12225 cumulative IPC: 0.13777 (Simulation time: 0 hr 19 min 13 sec) 
Heartbeat CPU  0 instructions:  135000000 cycles:  550390405 heartbeat IPC: 0.19882 cumulative IPC: 0.15847 (Simulation time: 0 hr 19 min 13 sec) 
Heartbeat CPU  3 instructions:  138000003 cycles:  551315665 heartbeat IPC: 0.15653 cumulative IPC: 0.15265 (Simulation time: 0 hr 19 min 15 sec) 
Heartbeat CPU  0 instructions:  136000000 cycles:  556515514 heartbeat IPC: 0.16326 cumulative IPC: 0.15852 (Simulation time: 0 hr 19 min 23 sec) 
Heartbeat CPU  1 instructions:  118000000 cycles:  556978604 heartbeat IPC: 0.13427 cumulative IPC: 0.12723 (Simulation time: 0 hr 19 min 24 sec) 
Heartbeat CPU  3 instructions:  139000001 cycles:  557724134 heartbeat IPC: 0.15604 cumulative IPC: 0.15269 (Simulation time: 0 hr 19 min 25 sec) 
Heartbeat CPU  2 instructions:  124000000 cycles:  558195551 heartbeat IPC: 0.12137 cumulative IPC: 0.13752 (Simulation time: 0 hr 19 min 26 sec) 
Heartbeat CPU  1 instructions:  119000002 cycles:  561565358 heartbeat IPC: 0.21802 cumulative IPC: 0.12800 (Simulation time: 0 hr 19 min 32 sec) 
Heartbeat CPU  0 instructions:  137000001 cycles:  562011437 heartbeat IPC: 0.18195 cumulative IPC: 0.15876 (Simulation time: 0 hr 19 min 33 sec) 
Heartbeat CPU  3 instructions:  140000000 cycles:  564102185 heartbeat IPC: 0.15679 cumulative IPC: 0.15273 (Simulation time: 0 hr 19 min 37 sec) 
Heartbeat CPU  2 instructions:  125000003 cycles:  566437468 heartbeat IPC: 0.12133 cumulative IPC: 0.13727 (Simulation time: 0 hr 19 min 40 sec) 
[...]
Core_1_L1D_wq_full 15319

Core_1_L1D_pq_access 0
Core_1_L1D_pq_forward 0
Core_1_L1D_pq_merged 0
Core_1_L1D_pq_to_cache 0
Core_1_L1D_pq_full 0

Core_1_L1D_acc_epochs 157688
Core_1_L1D_acc_level_0 157688
Core_1_L1D_acc_level_1 0
Core_1_L1D_acc_level_2 0
Core_1_L1D_acc_level_3 0
Core_1_L1D_acc_level_4 0
Core_1_L1D_acc_level_5 0
Core_1_L1D_acc_level_6 0
Core_1_L1D_acc_level_7 0
Core_1_L1D_acc_level_8 0
Core_1_L1D_acc_level_9 0

Core_1_L1I_total_access 41019293
Core_1_L1I_total_hit 41008495
Core_1_L1I_total_miss 10798
Core_1_L1I_loads 41019293
Core_1_L1I_load_hit 41008495
Core_1_L1I_load_miss 10798
Core_1_L1I_RFOs 0
Core_1_L1I_RFO_hit 0
Core_1_L1I_RFO_miss 0
Core_1_L1I_prefetches 0
Core_1_L1I_prefetch_hit 0
Core_1_L1I_prefetch_miss 0
Core_1_L1I_writebacks 0
Core_1_L1I_writeback_hit 0
Core_1_L1I_writeback_miss 0
Core_1_L1I_prefetch_requested 0
Core_1_L1I_prefetch_dropped 0
Core_1_L1I_prefetch_issued 0
Core_1_L1I_prefetch_filled 0
Core_1_L1I_prefetch_useful 0
Core_1_L1I_prefetch_useless 0
Core_1_L1I_prefetch_late 0
Core_1_L1I_average_miss_latency 160.18791

Core_1_L1I_rq_access 149999763
Core_1_L1I_rq_forward 0
Core_1_L1I_rq_merged 108971714
Core_1_L1I_rq_to_cache 41028049
Core_1_L1I_rq_full 0

Core_1_L1I_wq_access 0
Core_1_L1I_wq_forward 0
Core_1_L1I_wq_merged 0
Core_1_L1I_wq_to_cache 0
Core_1_L1I_wq_full 0

Core_1_L1I_pq_access 0
Core_1_L1I_pq_forward 0
Core_1_L1I_pq_merged 0
Core_1_L1I_pq_to_cache 0
Core_1_L1I_pq_full 0

Core_1_L1I_acc_epochs 157688
Core_1_L1I_acc_level_0 157688
Core_1_L1I_acc_level_1 0
Core_1_L1I_acc_level_2 0
Core_1_L1I_acc_level_3 0
Core_1_L1I_acc_level_4 0
Core_1_L1I_acc_level_5 0
Core_1_L1I_acc_level_6 0
Core_1_L1I_acc_level_7 0
Core_1_L1I_acc_level_8 0
Core_1_L1I_acc_level_9 0

Core_1_L2C_total_access 5446548
Core_1_L2C_total_hit 3394310
Core_1_L2C_total_miss 2052238
Core_1_L2C_loads 1148426
Core_1_L2C_load_hit 852731
Core_1_L2C_load_miss 295695
Core_1_L2C_RFOs 54707
Core_1_L2C_RFO_hit 18093
Core_1_L2C_RFO_miss 36614
Core_1_L2C_prefetches 3525469
Core_1_L2C_prefetch_hit 1827717
Core_1_L2C_prefetch_miss 1697752
Core_1_L2C_writebacks 717946
Core_1_L2C_writeback_hit 695769
Core_1_L2C_writeback_miss 22177
Core_1_L2C_prefetch_requested 4840604
Core_1_L2C_prefetch_dropped 32
Core_1_L2C_prefetch_issued 4840572
Core_1_L2C_prefetch_filled 2338288
Core_1_L2C_prefetch_useful 822243
Core_1_L2C_prefetch_useless 1514109
Core_1_L2C_prefetch_late 1391
Core_1_L2C_average_miss_latency 163.02205

Core_1_L2C_rq_access 1203141
Core_1_L2C_rq_forward 0
Core_1_L2C_rq_merged 0
Core_1_L2C_rq_to_cache 1203133
Core_1_L2C_rq_full 0

Core_1_L2C_wq_access 717946
Core_1_L2C_wq_forward 17
Core_1_L2C_wq_merged 0
Core_1_L2C_wq_to_cache 717946
Core_1_L2C_wq_full 0

Core_1_L2C_pq_access 4840572
Core_1_L2C_pq_forward 0
Core_1_L2C_pq_merged 0
Core_1_L2C_pq_to_cache 4840563
Core_1_L2C_pq_full 0

Core_1_L2C_acc_epochs 157688
Core_1_L2C_acc_level_0 16906
Core_1_L2C_acc_level_1 26615
Core_1_L2C_acc_level_2 25387
Core_1_L2C_acc_level_3 18921
Core_1_L2C_acc_level_4 13481
Core_1_L2C_acc_level_5 9857
Core_1_L2C_acc_level_6 7218
Core_1_L2C_acc_level_7 5541
Core_1_L2C_acc_level_8 4479
Core_1_L2C_acc_level_9 29283

Core_1_LLC_total_access 2611914
Core_1_LLC_total_hit 1831254
Core_1_LLC_total_miss 780660
Core_1_LLC_loads 294348
Core_1_LLC_load_hit 203244
Core_1_LLC_load_miss 91104
Core_1_LLC_RFOs 36607
Core_1_LLC_RFO_hit 13481
Core_1_LLC_RFO_miss 23126
Core_1_LLC_prefetches 1699090
Core_1_LLC_prefetch_hit 1044156
Core_1_LLC_prefetch_miss 654934
Core_1_LLC_writebacks 581869
Core_1_LLC_writeback_hit 570373
Core_1_LLC_writeback_miss 11496
Core_1_LLC_prefetch_requested 0
Core_1_LLC_prefetch_dropped 0
Core_1_LLC_prefetch_issued 0
Core_1_LLC_prefetch_filled 5340662
Core_1_LLC_prefetch_useful 603602
Core_1_LLC_prefetch_useless 4666189
Core_1_LLC_prefetch_late 0
Core_1_LLC_average_miss_latency 1187.13423

Core_1_LLC_rq_access 2605125
Core_1_LLC_rq_forward 0
Core_1_LLC_rq_merged 0
Core_1_LLC_rq_to_cache 2605045
Core_1_LLC_rq_full 0

Core_1_LLC_wq_access 2697117
Core_1_LLC_wq_forward 113
Core_1_LLC_wq_merged 0
Core_1_LLC_wq_to_cache 2697117
Core_1_LLC_wq_full 0

Core_1_LLC_pq_access 14297158
Core_1_LLC_pq_forward 0
Core_1_LLC_pq_merged 0
Core_1_LLC_pq_to_cache 14297120
Core_1_LLC_pq_full 0

Core_1_LLC_acc_epochs 1166735
Core_1_LLC_acc_level_0 851491
Core_1_LLC_acc_level_1 142987
Core_1_LLC_acc_level_2 72875
Core_1_LLC_acc_level_3 29709
Core_1_LLC_acc_level_4 9852
Core_1_LLC_acc_level_5 33006
Core_1_LLC_acc_level_6 7620
Core_1_LLC_acc_level_7 4915
Core_1_LLC_acc_level_8 2158
Core_1_LLC_acc_level_9 12122

Core_1_major_page_fault 0
Core_1_minor_page_fault 1620

Core_2_instructions 150000000
Core_2_cycles 1088817223
Core_2_IPC 0.13776

Core_2_branch_prediction_accuracy 99.18926
Core_2_branch_MPKI 1.79984
Core_2_average_ROB_occupancy_at_mispredict 150.87056

Core_2_L1D_total_access 24373138
Core_2_L1D_total_hit 23320058
Core_2_L1D_total_miss 1053080
Core_2_L1D_loads 14397486
Core_2_L1D_load_hit 13414250
Core_2_L1D_load_miss 983236
Core_2_L1D_RFOs 9975652
Core_2_L1D_RFO_hit 9905808
Core_2_L1D_RFO_miss 69844
Core_2_L1D_prefetches 0
Core_2_L1D_prefetch_hit 0
Core_2_L1D_prefetch_miss 0
Core_2_L1D_writebacks 0
Core_2_L1D_writeback_hit 0
Core_2_L1D_writeback_miss 0
Core_2_L1D_prefetch_requested 0
Core_2_L1D_prefetch_dropped 0
Core_2_L1D_prefetch_issued 0
Core_2_L1D_prefetch_filled 0
Core_2_L1D_prefetch_useful 0
Core_2_L1D_prefetch_useless 0
Core_2_L1D_prefetch_late 0
Core_2_L1D_average_miss_latency 121.72557

Core_2_L1D_rq_access 23003653
Core_2_L1D_rq_forward 0
Core_2_L1D_rq_merged 7566578
Core_2_L1D_rq_to_cache 15436958
Core_2_L1D_rq_full 0

Core_2_L1D_wq_access 11545161
Core_2_L1D_wq_forward 117
Core_2_L1D_wq_merged 648024
Core_2_L1D_wq_to_cache 10897137
Core_2_L1D_wq_full 17657

Core_2_L1D_pq_access 0
Core_2_L1D_pq_forward 0
Core_2_L1D_pq_merged 0
Core_2_L1D_pq_to_cache 0
Core_2_L1D_pq_full 0

Core_2_L1D_acc_epochs 171275
Core_2_L1D_acc_level_0 171275
Core_2_L1D_acc_level_1 0
Core_2_L1D_acc_level_2 0
Core_2_L1D_acc_level_3 0
Core_2_L1D_acc_level_4 0
Core_2_L1D_acc_level_5 0
Core_2_L1D_acc_level_6 0
Core_2_L1D_acc_level_7 0
Core_2_L1D_acc_level_8 0
Core_2_L1D_acc_level_9 0

Core_2_L1I_total_access 39725614
Core_2_L1I_total_hit 39665174
Core_2_L1I_total_miss 60440
Core_2_L1I_loads 39725614
Core_2_L1I_load_hit 39665174
Core_2_L1I_load_miss 60440
Core_2_L1I_RFOs 0
Core_2_L1I_RFO_hit 0
Core_2_L1I_RFO_miss 0
Core_2_L1I_prefetches 0
Core_2_L1I_prefetch_hit 0
Core_2_L1I_prefetch_miss 0
Core_2_L1I_writebacks 0
Core_2_L1I_writeback_hit 0
Core_2_L1I_writeback_miss 0
Core_2_L1I_prefetch_requested 0
Core_2_L1I_prefetch_dropped 0
Core_2_L1I_prefetch_issued 0
Core_2_L1I_prefetch_filled 0
Core_2_L1I_prefetch_useful 0
Core_2_L1I_prefetch_useless 0
Core_2_L1I_prefetch_late 0
Core_2_L1I_average_miss_latency 131.37723

Core_2_L1I_rq_access 160356297
Core_2_L1I_rq_forward 0
Core_2_L1I_rq_merged 117704760
Core_2_L1I_rq_to_cache 42651537
Core_2_L1I_rq_full 0

Core_2_L1I_wq_access 0
Core_2_L1I_wq_forward 0
Core_2_L1I_wq_merged 0
Core_2_L1I_wq_to_cache 0
Core_2_L1I_wq_full 0

Core_2_L1I_pq_access 0
Core_2_L1I_pq_forward 0
Core_2_L1I_pq_merged 0
Core_2_L1I_pq_to_cache 0
Core_2_L1I_pq_full 0

Core_2_L1I_acc_epochs 171275
Core_2_L1I_acc_level_0 171275
Core_2_L1I_acc_level_1 0
Core_2_L1I_acc_level_2 0
Core_2_L1I_acc_level_3 0
Core_2_L1I_acc_level_4 0
Core_2_L1I_acc_level_5 0
Core_2_L1I_acc_level_6 0
Core_2_L1I_acc_level_7 0
Core_2_L1I_acc_level_8 0
Core_2_L1I_acc_level_9 0

Core_2_L2C_total_access 5394582
Core_2_L2C_total_hit 3126550
Core_2_L2C_total_miss 2268032
Core_2_L2C_loads 1043673
Core_2_L2C_load_hit 701130
Core_2_L2C_load_miss 342543
Core_2_L2C_RFOs 69837
Core_2_L2C_RFO_hit 33760
Core_2_L2C_RFO_miss 36077
Core_2_L2C_prefetches 3648831
Core_2_L2C_prefetch_hit 1791445
Core_2_L2C_prefetch_miss 1857386
Core_2_L2C_writebacks 632241
Core_2_L2C_writeback_hit 600215
Core_2_L2C_writeback_miss 32026
Core_2_L2C_prefetch_requested 5210422
Core_2_L2C_prefetch_dropped 39
Core_2_L2C_prefetch_issued 5210383
Core_2_L2C_prefetch_filled 2628206
Core_2_L2C_prefetch_useful 724559
Core_2_L2C_prefetch_useless 1901822
Core_2_L2C_prefetch_late 764
Core_2_L2C_average_miss_latency 159.16708

Core_2_L2C_rq_access 1199035
Core_2_L2C_rq_forward 0
Core_2_L2C_rq_merged 0
Core_2_L2C_rq_to_cache 1199024
Core_2_L2C_rq_full 0

Core_2_L2C_wq_access 681147
Core_2_L2C_wq_forward 19
Core_2_L2C_wq_merged 0
Core_2_L2C_wq_to_cache 681147
Core_2_L2C_wq_full 0

Core_2_L2C_pq_access 5210383
Core_2_L2C_pq_forward 0
Core_2_L2C_pq_merged 0
Core_2_L2C_pq_to_cache 5210375
Core_2_L2C_pq_full 0

Core_2_L2C_acc_epochs 171275
Core_2_L2C_acc_level_0 49914
Core_2_L2C_acc_level_1 29955
Core_2_L2C_acc_level_2 21277
Core_2_L2C_acc_level_3 13745
Core_2_L2C_acc_level_4 9634
Core_2_L2C_acc_level_5 8013
Core_2_L2C_acc_level_6 5743
Core_2_L2C_acc_level_7 4729
Core_2_L2C_acc_level_8 3816
Core_2_L2C_acc_level_9 24449

Core_2_LLC_total_access 2744677
Core_2_LLC_total_hit 2016231
Core_2_LLC_total_miss 728446
Core_2_LLC_loads 341880
Core_2_LLC_load_hit 246629
Core_2_LLC_load_miss 95251
Core_2_LLC_RFOs 36073
Core_2_LLC_RFO_hit 16352
Core_2_LLC_RFO_miss 19721
Core_2_LLC_prefetches 1858031
Core_2_LLC_prefetch_hit 1254342
Core_2_LLC_prefetch_miss 603689
Core_2_LLC_writebacks 508693
Core_2_LLC_writeback_hit 498908
Core_2_LLC_writeback_miss 9785
Core_2_LLC_prefetch_requested 0
Core_2_LLC_prefetch_dropped 0
Core_2_LLC_prefetch_issued 0
Core_2_LLC_prefetch_filled 5340662
Core_2_LLC_prefetch_useful 603602
Core_2_LLC_prefetch_useless 4666189
Core_2_LLC_prefetch_late 0
Core_2_LLC_average_miss_latency 1272.22637

Core_2_LLC_rq_access 2605125
Core_2_LLC_rq_forward 0
Core_2_LLC_rq_merged 0
Core_2_LLC_rq_to_cache 2605045
Core_2_LLC_rq_full 0

Core_2_LLC_wq_access 2697117
Core_2_LLC_wq_forward 113
Core_2_LLC_wq_merged 0
Core_2_LLC_wq_to_cache 2697117
Core_2_LLC_wq_full 0

Core_2_LLC_pq_access 14297158
Core_2_LLC_pq_forward 0
Core_2_LLC_pq_merged 0
Core_2_LLC_pq_to_cache 14297120
Core_2_LLC_pq_full 0

Core_2_LLC_acc_epochs 1166735
Core_2_LLC_acc_level_0 851491
Core_2_LLC_acc_level_1 142987
Core_2_LLC_acc_level_2 72875
Core_2_LLC_acc_level_3 29709
Core_2_LLC_acc_level_4 9852
Core_2_LLC_acc_level_5 33006
Core_2_LLC_acc_level_6 7620
Core_2_LLC_acc_level_7 4915
Core_2_LLC_acc_level_8 2158
Core_2_LLC_acc_level_9 12122

Core_2_major_page_fault 0
Core_2_minor_page_fault 2290

Core_3_instructions 150000002
Core_3_cycles 984266019
Core_3_IPC 0.15240

Core_3_branch_prediction_accuracy 99.62350
Core_3_branch_MPKI 0.78914
Core_3_average_ROB_occupancy_at_mispredict 216.71177

Core_3_L1D_total_access 22778230
Core_3_L1D_total_hit 22386333
Core_3_L1D_total_miss 391897
Core_3_L1D_loads 13858860
Core_3_L1D_load_hit 13467596
Core_3_L1D_load_miss 391264
Core_3_L1D_RFOs 8919370
Core_3_L1D_RFO_hit 8918737
Core_3_L1D_RFO_miss 633
Core_3_L1D_prefetches 0
Core_3_L1D_prefetch_hit 0
Core_3_L1D_prefetch_miss 0
Core_3_L1D_writebacks 0
Core_3_L1D_writeback_hit 0
Core_3_L1D_writeback_miss 0
Core_3_L1D_prefetch_requested 0
Core_3_L1D_prefetch_dropped 0
Core_3_L1D_prefetch_issued 0
Core_3_L1D_prefetch_filled 0
Core_3_L1D_prefetch_useful 0
Core_3_L1D_prefetch_useless 0
Core_3_L1D_prefetch_late 0
Core_3_L1D_average_miss_latency 174.54521

Core_3_L1D_rq_access 24279078
Core_3_L1D_rq_forward 0
Core_3_L1D_rq_merged 7707433
Core_3_L1D_rq_to_cache 16571422
Core_3_L1D_rq_full 0

Core_3_L1D_wq_access 10837924
Core_3_L1D_wq_forward 223
Core_3_L1D_wq_merged 190003
Core_3_L1D_wq_to_cache 10647921
Core_3_L1D_wq_full 0

Core_3_L1D_pq_access 0
Core_3_L1D_pq_forward 0
Core_3_L1D_pq_merged 0
Core_3_L1D_pq_to_cache 0
Core_3_L1D_pq_full 0

Core_3_L1D_acc_epochs 185477
Core_3_L1D_acc_level_0 185477
Core_3_L1D_acc_level_1 0
Core_3_L1D_acc_level_2 0
Core_3_L1D_acc_level_3 0
Core_3_L1D_acc_level_4 0
Core_3_L1D_acc_level_5 0
Core_3_L1D_acc_level_6 0
Core_3_L1D_acc_level_7 0
Core_3_L1D_acc_level_8 0
Core_3_L1D_acc_level_9 0

Core_3_L1I_total_access 41463951
Core_3_L1I_total_hit 41461947
Core_3_L1I_total_miss 2004
Core_3_L1I_loads 41463951
Core_3_L1I_load_hit 41461947
Core_3_L1I_load_miss 2004
Core_3_L1I_RFOs 0
Core_3_L1I_RFO_hit 0
Core_3_L1I_RFO_miss 0
Core_3_L1I_prefetches 0
Core_3_L1I_prefetch_hit 0
Core_3_L1I_prefetch_miss 0
Core_3_L1I_writebacks 0
Core_3_L1I_writeback_hit 0
Core_3_L1I_writeback_miss 0
Core_3_L1I_prefetch_requested 0
Core_3_L1I_prefetch_dropped 0
Core_3_L1I_prefetch_issued 0
Core_3_L1I_prefetch_filled 0
Core_3_L1I_prefetch_useful 0
Core_3_L1I_prefetch_useless 0
Core_3_L1I_prefetch_late 0
Core_3_L1I_average_miss_latency 241.10180

Core_3_L1I_rq_access 179043371
Core_3_L1I_rq_forward 0
Core_3_L1I_rq_merged 129549453
Core_3_L1I_rq_to_cache 49493918
Core_3_L1I_rq_full 0

Core_3_L1I_wq_access 0
Core_3_L1I_wq_forward 0
Core_3_L1I_wq_merged 0
Core_3_L1I_wq_to_cache 0
Core_3_L1I_wq_full 0

Core_3_L1I_pq_access 0
Core_3_L1I_pq_forward 0
Core_3_L1I_pq_merged 0
Core_3_L1I_pq_to_cache 0
Core_3_L1I_pq_full 0

Core_3_L1I_acc_epochs 185477
Core_3_L1I_acc_level_0 185477
Core_3_L1I_acc_level_1 0
Core_3_L1I_acc_level_2 0
Core_3_L1I_acc_level_3 0
Core_3_L1I_acc_level_4 0
Core_3_L1I_acc_level_5 0
Core_3_L1I_acc_level_6 0
Core_3_L1I_acc_level_7 0
Core_3_L1I_acc_level_8 0
Core_3_L1I_acc_level_9 0

Core_3_L2C_total_access 1933584
Core_3_L2C_total_hit 758835
Core_3_L2C_total_miss 1174749
Core_3_L2C_loads 393268
Core_3_L2C_load_hit 186153
Core_3_L2C_load_miss 207115
Core_3_L2C_RFOs 633
Core_3_L2C_RFO_hit 114
Core_3_L2C_RFO_miss 519
Core_3_L2C_prefetches 1391985
Core_3_L2C_prefetch_hit 429177
Core_3_L2C_prefetch_miss 962808
Core_3_L2C_writebacks 147698
Core_3_L2C_writeback_hit 143391
Core_3_L2C_writeback_miss 4307
Core_3_L2C_prefetch_requested 2167464
Core_3_L2C_prefetch_dropped 13
Core_3_L2C_prefetch_issued 2167451
Core_3_L2C_prefetch_filled 1492829
Core_3_L2C_prefetch_useful 274931
Core_3_L2C_prefetch_useless 1215157
Core_3_L2C_prefetch_late 757
Core_3_L2C_average_miss_latency 239.23494

Core_3_L2C_rq_access 469579
Core_3_L2C_rq_forward 0
Core_3_L2C_rq_merged 0
Core_3_L2C_rq_to_cache 469579
Core_3_L2C_rq_full 0

Core_3_L2C_wq_access 176209
Core_3_L2C_wq_forward 2
Core_3_L2C_wq_merged 0
Core_3_L2C_wq_to_cache 176209
Core_3_L2C_wq_full 0

Core_3_L2C_pq_access 2167451
Core_3_L2C_pq_forward 0
Core_3_L2C_pq_merged 0
Core_3_L2C_pq_to_cache 2167449
Core_3_L2C_pq_full 0

Core_3_L2C_acc_epochs 185477
Core_3_L2C_acc_level_0 83815
Core_3_L2C_acc_level_1 45830
Core_3_L2C_acc_level_2 19305
Core_3_L2C_acc_level_3 10226
Core_3_L2C_acc_level_4 4943
Core_3_L2C_acc_level_5 5991
Core_3_L2C_acc_level_6 2991
Core_3_L2C_acc_level_7 2363
Core_3_L2C_acc_level_8 1421
Core_3_L2C_acc_level_9 8592

Core_3_LLC_total_access 1317160
Core_3_LLC_total_hit 544375
Core_3_LLC_total_miss 772785
Core_3_LLC_loads 206516
Core_3_LLC_load_hit 85457
Core_3_LLC_load_miss 121059
Core_3_LLC_RFOs 518
Core_3_LLC_RFO_hit 0
Core_3_LLC_RFO_miss 518
Core_3_LLC_prefetches 963406
Core_3_LLC_prefetch_hit 323253
Core_3_LLC_prefetch_miss 640153
Core_3_LLC_writebacks 146720
Core_3_LLC_writeback_hit 135665
Core_3_LLC_writeback_miss 11055
Core_3_LLC_prefetch_requested 0
Core_3_LLC_prefetch_dropped 0
Core_3_LLC_prefetch_issued 0
Core_3_LLC_prefetch_filled 5340662
Core_3_LLC_prefetch_useful 603602
Core_3_LLC_prefetch_useless 4666189
Core_3_LLC_prefetch_late 0
Core_3_LLC_average_miss_latency 1199.23162

Core_3_LLC_rq_access 2605125
Core_3_LLC_rq_forward 0
Core_3_LLC_rq_merged 0
Core_3_LLC_rq_to_cache 2605045
Core_3_LLC_rq_full 0

Core_3_LLC_wq_access 2697117
Core_3_LLC_wq_forward 113
Core_3_LLC_wq_merged 0
Core_3_LLC_wq_to_cache 2697117
Core_3_LLC_wq_full 0

Core_3_LLC_pq_access 14297158
Core_3_LLC_pq_forward 0
Core_3_LLC_pq_merged 0
Core_3_LLC_pq_to_cache 14297120
Core_3_LLC_pq_full 0

Core_3_LLC_acc_epochs 1166735
Core_3_LLC_acc_level_0 851491
Core_3_LLC_acc_level_1 142987
Core_3_LLC_acc_level_2 72875
Core_3_LLC_acc_level_3 29709
Core_3_LLC_acc_level_4 9852
Core_3_LLC_acc_level_5 33006
Core_3_LLC_acc_level_6 7620
Core_3_LLC_acc_level_7 4915
Core_3_LLC_acc_level_8 2158
Core_3_LLC_acc_level_9 12122

Core_3_major_page_fault 0
Core_3_minor_page_fault 3085

dspatch.pb.lookup 2842236
dspatch.pb.hit 1344194
dspatch.pb.evict 1497978
dspatch.pb.insert 1498042

dspatch.gen_pref.called 1498042
dspatch.gen_pref.reset 511
dspatch.gen_pref.total 16084939

dspatch.dyn_selection.called 1498042
dspatch.dyn_selection.none 8
dspatch.dyn_selection.accp_reason1 511
dspatch.dyn_selection.accp_reason2 2529
dspatch.dyn_selection.covp_reason1 3
dspatch.dyn_selection.covp_reason2 1494991

dspatch.spt.called 1497978
dspatch.spt.or_count_incr 278353
dspatch.spt.measure_covP_incr 1406158
dspatch.spt.bmp_cov_reset 61157
dspatch.spt.bmp_cov_update 2608
dspatch.spt.measure_accP_incr 210415
dspatch.spt.measure_accP_decr 1287563
dspatch.spt.bmp_acc_update 1497978

dspatch.pref_buffer.spilled 5554332
dspatch.pref_buffer.buffered 10530607
dspatch.pref_buffer.issued 10530522

dspatch.bw.called 4666940
dspatch.bw.bw_histogram 4534125,123615,7653,1547,

dspatch.pb.lookup 1534439
dspatch.pb.hit 1021851
dspatch.pb.evict 512524
dspatch.pb.insert 512588

dspatch.gen_pref.called 512588
dspatch.gen_pref.reset 172
dspatch.gen_pref.total 6687437

dspatch.dyn_selection.called 512588
dspatch.dyn_selection.none 0
dspatch.dyn_selection.accp_reason1 172
dspatch.dyn_selection.accp_reason2 722
dspatch.dyn_selection.covp_reason1 22
dspatch.dyn_selection.covp_reason2 511672

dspatch.spt.called 512524
dspatch.spt.or_count_incr 54097
dspatch.spt.measure_covP_incr 429665
dspatch.spt.bmp_cov_reset 6157
dspatch.spt.bmp_cov_update 2906
dspatch.spt.measure_accP_incr 94370
dspatch.spt.measure_accP_decr 418154
dspatch.spt.bmp_acc_update 512524

dspatch.pref_buffer.spilled 1846774
dspatch.pref_buffer.buffered 4840663
dspatch.pref_buffer.issued 4840604

dspatch.bw.called 4666940
dspatch.bw.bw_histogram 4534125,123615,7653,1547,

dspatch.pb.lookup 1524279
dspatch.pb.hit 942718
dspatch.pb.evict 581497
dspatch.pb.insert 581561

dspatch.gen_pref.called 581561
dspatch.gen_pref.reset 94
dspatch.gen_pref.total 7054232

dspatch.dyn_selection.called 581561
dspatch.dyn_selection.none 2
dspatch.dyn_selection.accp_reason1 94
dspatch.dyn_selection.accp_reason2 686
dspatch.dyn_selection.covp_reason1 14
dspatch.dyn_selection.covp_reason2 580765

dspatch.spt.called 581497
dspatch.spt.or_count_incr 70228
dspatch.spt.measure_covP_incr 527273
dspatch.spt.bmp_cov_reset 9337
dspatch.spt.bmp_cov_update 7804
dspatch.spt.measure_accP_incr 98820
dspatch.spt.measure_accP_decr 482677
dspatch.spt.bmp_acc_update 581497

dspatch.pref_buffer.spilled 1843783
dspatch.pref_buffer.buffered 5210449
dspatch.pref_buffer.issued 5210422

dspatch.bw.called 4666940
dspatch.bw.bw_histogram 4534125,123615,7653,1547,

dspatch.pb.lookup 619762
dspatch.pb.hit 350652
dspatch.pb.evict 269046
dspatch.pb.insert 269110

dspatch.gen_pref.called 269110
dspatch.gen_pref.reset 167
dspatch.gen_pref.total 2300443

dspatch.dyn_selection.called 269110
dspatch.dyn_selection.none 1
dspatch.dyn_selection.accp_reason1 167
dspatch.dyn_selection.accp_reason2 716
dspatch.dyn_selection.covp_reason1 36
dspatch.dyn_selection.covp_reason2 268190

dspatch.spt.called 269046
dspatch.spt.or_count_incr 37827
dspatch.spt.measure_covP_incr 220908
dspatch.spt.bmp_cov_reset 5434
dspatch.spt.bmp_cov_update 1148
dspatch.spt.measure_accP_incr 37154
dspatch.spt.measure_accP_decr 231892
dspatch.spt.bmp_acc_update 269046

dspatch.pref_buffer.spilled 132919
dspatch.pref_buffer.buffered 2167524
dspatch.pref_buffer.issued 2167464

dspatch.bw.called 4666940
dspatch.bw.bw_histogram 4534125,123615,7653,1547,

Channel_0_RQ_row_buffer_hit 231434
Channel_0_RQ_row_buffer_miss 2184984
Channel_0_WQ_row_buffer_hit 71557
Channel_0_WQ_row_buffer_miss 692096
Channel_0_WQ_full 0
Channel_0_dbus_congested 947728

Channel_1_RQ_row_buffer_hit 228338
Channel_1_RQ_row_buffer_miss 2172753
Channel_1_WQ_row_buffer_hit 70856
Channel_1_WQ_row_buffer_miss 690458
Channel_1_WQ_full 0
Channel_1_dbus_congested 936885

avg_congested_cycle 10

DRAM_bw_pochs 4666940
DRAM_bw_level_0 4534125
DRAM_bw_level_1 123615
DRAM_bw_level_2 7653
DRAM_bw_level_3 1547
