*************************************************
   ChampSim Multicore Out-of-Order Simulator
   Last compiled: Mar 31 2025 20:14:32
*************************************************
parsing config file: /data3/config/bingo.ini

trace_0 /data3/CLOUD9/traces/cloud9_phase0_core0.trace.xz
trace_1 /data3/CLOUD9/traces/cloud9_phase0_core1.trace.xz
trace_2 /data3/CLOUD9/traces/cloud9_phase0_core2.trace.xz
trace_3 /data3/CLOUD9/traces/cloud9_phase0_core3.trace.xz
adding L2C_PREFETCHER: Bingo
adding L2C_PREFETCHER: Bingo
adding L2C_PREFETCHER: Bingo
adding L2C_PREFETCHER: Bingo
Initialize SHIP state
warmup_instructions 50000000
simulation_instructions 150000000
champsim_seed 7334
measure_ipc 0
measure_ipc_epoch 1000
measure_dram_bw 1
measure_dram_bw_epoch 256
measure_cache_acc 1
measure_cache_acc_epoch 1024
l1d_perfect 0
l2c_perfect 0
llc_perfect 0
l1d_semi_perfect 0
l2c_semi_perfect 0
llc_semi_perfect 0
semi_perfect_cache_page_buffer_size 64

num_cpus 4
cpu_freq 4000
dram_io_freq 2400
page_size 4096
block_size 64
max_read_per_cycle 8
max_fill_per_cycle 1
dram_channels 2
log2_dram_channels 1
dram_ranks 1
dram_banks 8
dram_rows 65536
dram_columns 128
dram_row_size 8
dram_size 8192
dram_pages 2097152

fetch_width 6
decode_width 6
exec_width 4
lq_width 2
sq_width 2
retire_width 4
scheduler_size 128
branch_mispredict_penalty 20
rob_size 256
lq_size 72
sq_size 56
num_instr_destinations_sparc 4
num_instr_destinations 2
num_instr_sources 4

itlb_set 16
itlb_way 8
itlb_rq_size 16
itlb_wq_size 16
itlb_pq_size 0
itlb_mshr_size 8
itlb_latency 1

dtlb_set 16
dtlb_way 4
dtlb_rq_size 16
dtlb_wq_size 16
dtlb_pq_size 0
dtlb_mshr_size 8
dtlb_latency 1

stlb_set 128
stlb_way 12
stlb_rq_size 32
stlb_wq_size 32
stlb_pq_size 0
stlb_mshr_size 16
stlb_latency 8

l1i_size 32
l1i_set 64
l1i_way 8
l1i_rq_size 64
l1i_wq_size 64
l1i_pq_size 8
l1i_mshr_size 8
l1i_latency 1

l1d_size 32
l1d_set 64
l1d_way 8
l1d_rq_size 64
l1d_wq_size 64
l1d_pq_size 8
l1d_mshr_size 16
l1d_latency 4

l2c_size 256
l2c_set 512
l2c_way 8
l2c_rq_size 32
l2c_wq_size 32
l2c_pq_size 32
l2c_mshr_size 32
l2c_latency 10

llc_size 8192
llc_set 8192
llc_way 16
llc_rq_size 128
llc_wq_size 128
llc_pq_size 128
llc_mshr_size 256
llc_latency 20

dram_channel_width 8
dram_wq_size 64
dram_rq_size 64
tRP 15
tRCD 15
tCAS 12.5
dram_dbus_turn_around_time 30
dram_write_high_wm 56
dram_write_low_wm 48
min_dram_writes_per_switch 16
dram_mtps 2400
dram_dbus_return_time 13

bingo_region_size 2048
bingo_pattern_len 32
bingo_pc_width 16
bingo_min_addr_width 5
bingo_max_addr_width 16
bingo_ft_size 64
bingo_at_size 128
bingo_pht_size 4096
bingo_pht_ways 16
bingo_pf_streamer_size 128
bingo_debug_level 0
bingo_l1d_thresh 1.01
bingo_l2c_thresh 0.8
bingo_llc_thresh 0.05
bingo_pc_address_fill_level L2


Heartbeat CPU  3 instructions:    1000000 cycles:     387070 heartbeat IPC: 2.58351 cumulative IPC: 2.58351 (Simulation time: 0 hr 0 min 6 sec) 
Heartbeat CPU  2 instructions:    1000000 cycles:     403933 heartbeat IPC: 2.47566 cumulative IPC: 2.47566 (Simulation time: 0 hr 0 min 7 sec) 
Heartbeat CPU  1 instructions:    1000000 cycles:     425091 heartbeat IPC: 2.35244 cumulative IPC: 2.35244 (Simulation time: 0 hr 0 min 7 sec) 
Heartbeat CPU  0 instructions:    1000002 cycles:     426802 heartbeat IPC: 2.34301 cumulative IPC: 2.34301 (Simulation time: 0 hr 0 min 7 sec) 
Heartbeat CPU  3 instructions:    2000002 cycles:     773322 heartbeat IPC: 2.58899 cumulative IPC: 2.58625 (Simulation time: 0 hr 0 min 12 sec) 
Heartbeat CPU  2 instructions:    2000001 cycles:     795594 heartbeat IPC: 2.55323 cumulative IPC: 2.51385 (Simulation time: 0 hr 0 min 13 sec) 
Heartbeat CPU  1 instructions:    2000002 cycles:     865744 heartbeat IPC: 2.26936 cumulative IPC: 2.31015 (Simulation time: 0 hr 0 min 14 sec) 
Heartbeat CPU  0 instructions:    2000002 cycles:     896005 heartbeat IPC: 2.13127 cumulative IPC: 2.23213 (Simulation time: 0 hr 0 min 14 sec) 
Heartbeat CPU  3 instructions:    3000001 cycles:    1159923 heartbeat IPC: 2.58664 cumulative IPC: 2.58638 (Simulation time: 0 hr 0 min 18 sec) 
Heartbeat CPU  2 instructions:    3000001 cycles:    1198307 heartbeat IPC: 2.48316 cumulative IPC: 2.50353 (Simulation time: 0 hr 0 min 19 sec) 
Heartbeat CPU  1 instructions:    3000003 cycles:    1260400 heartbeat IPC: 2.53385 cumulative IPC: 2.38020 (Simulation time: 0 hr 0 min 20 sec) 
Heartbeat CPU  0 instructions:    3000000 cycles:    1380072 heartbeat IPC: 2.06583 cumulative IPC: 2.17380 (Simulation time: 0 hr 0 min 22 sec) 
Heartbeat CPU  3 instructions:    4000000 cycles:    1545497 heartbeat IPC: 2.59353 cumulative IPC: 2.58816 (Simulation time: 0 hr 0 min 24 sec) 
Heartbeat CPU  2 instructions:    4000000 cycles:    1597180 heartbeat IPC: 2.50706 cumulative IPC: 2.50441 (Simulation time: 0 hr 0 min 25 sec) 
Heartbeat CPU  1 instructions:    4000000 cycles:    1655624 heartbeat IPC: 2.53020 cumulative IPC: 2.41601 (Simulation time: 0 hr 0 min 26 sec) 
Heartbeat CPU  0 instructions:    4000000 cycles:    1819237 heartbeat IPC: 2.27705 cumulative IPC: 2.19872 (Simulation time: 0 hr 0 min 28 sec) 
Heartbeat CPU  3 instructions:    5000002 cycles:    1931963 heartbeat IPC: 2.58755 cumulative IPC: 2.58804 (Simulation time: 0 hr 0 min 30 sec) 
Heartbeat CPU  2 instructions:    5000001 cycles:    1999226 heartbeat IPC: 2.48728 cumulative IPC: 2.50097 (Simulation time: 0 hr 0 min 31 sec) 
Heartbeat CPU  1 instructions:    5000003 cycles:    2051057 heartbeat IPC: 2.52888 cumulative IPC: 2.43777 (Simulation time: 0 hr 0 min 32 sec) 
Heartbeat CPU  0 instructions:    5000002 cycles:    2264304 heartbeat IPC: 2.24686 cumulative IPC: 2.20818 (Simulation time: 0 hr 0 min 36 sec) 
Heartbeat CPU  3 instructions:    6000003 cycles:    2317420 heartbeat IPC: 2.59433 cumulative IPC: 2.58909 (Simulation time: 0 hr 0 min 36 sec) 
Heartbeat CPU  2 instructions:    6000002 cycles:    2401680 heartbeat IPC: 2.48476 cumulative IPC: 2.49825 (Simulation time: 0 hr 0 min 38 sec) 
Heartbeat CPU  1 instructions:    6000001 cycles:    2607624 heartbeat IPC: 1.79673 cumulative IPC: 2.30095 (Simulation time: 0 hr 0 min 40 sec) 
Heartbeat CPU  3 instructions:    7000003 cycles:    2707726 heartbeat IPC: 2.56209 cumulative IPC: 2.58520 (Simulation time: 0 hr 0 min 42 sec) 
Heartbeat CPU  0 instructions:    6000001 cycles:    2730475 heartbeat IPC: 2.14513 cumulative IPC: 2.19742 (Simulation time: 0 hr 0 min 42 sec) 
Heartbeat CPU  2 instructions:    7000002 cycles:    2805629 heartbeat IPC: 2.47556 cumulative IPC: 2.49498 (Simulation time: 0 hr 0 min 44 sec) 
Heartbeat CPU  1 instructions:    7000001 cycles:    3016404 heartbeat IPC: 2.44630 cumulative IPC: 2.32064 (Simulation time: 0 hr 0 min 47 sec) 
Heartbeat CPU  3 instructions:    8000000 cycles:    3096218 heartbeat IPC: 2.57405 cumulative IPC: 2.58380 (Simulation time: 0 hr 0 min 48 sec) 
Heartbeat CPU  0 instructions:    7000003 cycles:    3174837 heartbeat IPC: 2.25042 cumulative IPC: 2.20484 (Simulation time: 0 hr 0 min 50 sec) 
Heartbeat CPU  2 instructions:    8000000 cycles:    3208363 heartbeat IPC: 2.48302 cumulative IPC: 2.49348 (Simulation time: 0 hr 0 min 50 sec) 
Heartbeat CPU  1 instructions:    8000000 cycles:    3412995 heartbeat IPC: 2.52149 cumulative IPC: 2.34398 (Simulation time: 0 hr 0 min 53 sec) 
Heartbeat CPU  3 instructions:    9000001 cycles:    3482917 heartbeat IPC: 2.58599 cumulative IPC: 2.58404 (Simulation time: 0 hr 0 min 55 sec) 
Heartbeat CPU  2 instructions:    9000002 cycles:    3610468 heartbeat IPC: 2.48692 cumulative IPC: 2.49275 (Simulation time: 0 hr 0 min 56 sec) 
Heartbeat CPU  0 instructions:    8000000 cycles:    3670727 heartbeat IPC: 2.01657 cumulative IPC: 2.17940 (Simulation time: 0 hr 0 min 57 sec) 
Heartbeat CPU  1 instructions:    9000003 cycles:    3815985 heartbeat IPC: 2.48146 cumulative IPC: 2.35850 (Simulation time: 0 hr 1 min 0 sec) 
Heartbeat CPU  3 instructions:   10000000 cycles:    3869840 heartbeat IPC: 2.58449 cumulative IPC: 2.58409 (Simulation time: 0 hr 1 min 1 sec) 
Heartbeat CPU  2 instructions:   10000003 cycles:    4010505 heartbeat IPC: 2.49977 cumulative IPC: 2.49345 (Simulation time: 0 hr 1 min 3 sec) 
Heartbeat CPU  0 instructions:    9000002 cycles:    4103166 heartbeat IPC: 2.31247 cumulative IPC: 2.19343 (Simulation time: 0 hr 1 min 4 sec) 
Heartbeat CPU  3 instructions:   11000000 cycles:    4257389 heartbeat IPC: 2.58032 cumulative IPC: 2.58374 (Simulation time: 0 hr 1 min 7 sec) 
Heartbeat CPU  1 instructions:   10000000 cycles:    4282319 heartbeat IPC: 2.14438 cumulative IPC: 2.33518 (Simulation time: 0 hr 1 min 7 sec) 
Heartbeat CPU  2 instructions:   11000001 cycles:    4412889 heartbeat IPC: 2.48518 cumulative IPC: 2.49270 (Simulation time: 0 hr 1 min 9 sec) 
Heartbeat CPU  0 instructions:   10000003 cycles:    4536469 heartbeat IPC: 2.30786 cumulative IPC: 2.20436 (Simulation time: 0 hr 1 min 11 sec) 
Heartbeat CPU  3 instructions:   12000000 cycles:    4644435 heartbeat IPC: 2.58367 cumulative IPC: 2.58374 (Simulation time: 0 hr 1 min 13 sec) 
Heartbeat CPU  1 instructions:   11000001 cycles:    4771664 heartbeat IPC: 2.04355 cumulative IPC: 2.30528 (Simulation time: 0 hr 1 min 15 sec) 
Heartbeat CPU  2 instructions:   12000000 cycles:    4813943 heartbeat IPC: 2.49343 cumulative IPC: 2.49276 (Simulation time: 0 hr 1 min 15 sec) 
Heartbeat CPU  0 instructions:   11000002 cycles:    4968117 heartbeat IPC: 2.31670 cumulative IPC: 2.21412 (Simulation time: 0 hr 1 min 18 sec) 
Heartbeat CPU  3 instructions:   13000003 cycles:    5030888 heartbeat IPC: 2.58764 cumulative IPC: 2.58404 (Simulation time: 0 hr 1 min 19 sec) 
Heartbeat CPU  1 instructions:   12000000 cycles:    5182841 heartbeat IPC: 2.43204 cumulative IPC: 2.31533 (Simulation time: 0 hr 1 min 21 sec) 
Heartbeat CPU  2 instructions:   13000000 cycles:    5215147 heartbeat IPC: 2.49250 cumulative IPC: 2.49274 (Simulation time: 0 hr 1 min 22 sec) 
Heartbeat CPU  0 instructions:   12000000 cycles:    5404042 heartbeat IPC: 2.29397 cumulative IPC: 2.22056 (Simulation time: 0 hr 1 min 25 sec) 
Heartbeat CPU  3 instructions:   14000002 cycles:    5417685 heartbeat IPC: 2.58533 cumulative IPC: 2.58413 (Simulation time: 0 hr 1 min 25 sec) 
Heartbeat CPU  1 instructions:   13000001 cycles:    5598517 heartbeat IPC: 2.40572 cumulative IPC: 2.32204 (Simulation time: 0 hr 1 min 28 sec) 
Heartbeat CPU  2 instructions:   14000001 cycles:    5616458 heartbeat IPC: 2.49184 cumulative IPC: 2.49267 (Simulation time: 0 hr 1 min 28 sec) 
Heartbeat CPU  3 instructions:   15000001 cycles:    5805612 heartbeat IPC: 2.57780 cumulative IPC: 2.58371 (Simulation time: 0 hr 1 min 31 sec) 
Heartbeat CPU  0 instructions:   13000000 cycles:    6014742 heartbeat IPC: 1.63747 cumulative IPC: 2.16136 (Simulation time: 0 hr 1 min 34 sec) 
Heartbeat CPU  2 instructions:   15000002 cycles:    6017374 heartbeat IPC: 2.49429 cumulative IPC: 2.49278 (Simulation time: 0 hr 1 min 34 sec) 
Heartbeat CPU  1 instructions:   14000001 cycles:    6029045 heartbeat IPC: 2.32273 cumulative IPC: 2.32209 (Simulation time: 0 hr 1 min 34 sec) 
Heartbeat CPU  3 instructions:   16000000 cycles:    6186678 heartbeat IPC: 2.62421 cumulative IPC: 2.58620 (Simulation time: 0 hr 1 min 37 sec) 
Heartbeat CPU  2 instructions:   16000000 cycles:    6417905 heartbeat IPC: 2.49668 cumulative IPC: 2.49303 (Simulation time: 0 hr 1 min 40 sec) 
Heartbeat CPU  1 instructions:   15000001 cycles:    6431438 heartbeat IPC: 2.48513 cumulative IPC: 2.33229 (Simulation time: 0 hr 1 min 41 sec) 
Heartbeat CPU  0 instructions:   14000002 cycles:    6452007 heartbeat IPC: 2.28695 cumulative IPC: 2.16987 (Simulation time: 0 hr 1 min 41 sec) 
Heartbeat CPU  3 instructions:   17000002 cycles:    6572665 heartbeat IPC: 2.59077 cumulative IPC: 2.58647 (Simulation time: 0 hr 1 min 43 sec) 
Heartbeat CPU  2 instructions:   17000001 cycles:    6819692 heartbeat IPC: 2.48888 cumulative IPC: 2.49278 (Simulation time: 0 hr 1 min 47 sec) 
Heartbeat CPU  0 instructions:   15000003 cycles:    6890119 heartbeat IPC: 2.28252 cumulative IPC: 2.17703 (Simulation time: 0 hr 1 min 48 sec) 
Heartbeat CPU  1 instructions:   16000000 cycles:    6900270 heartbeat IPC: 2.13296 cumulative IPC: 2.31875 (Simulation time: 0 hr 1 min 48 sec) 
Heartbeat CPU  3 instructions:   18000003 cycles:    6961854 heartbeat IPC: 2.56945 cumulative IPC: 2.58552 (Simulation time: 0 hr 1 min 49 sec) 
Heartbeat CPU  2 instructions:   18000001 cycles:    7221212 heartbeat IPC: 2.49054 cumulative IPC: 2.49266 (Simulation time: 0 hr 1 min 53 sec) 
Heartbeat CPU  1 instructions:   17000003 cycles:    7295830 heartbeat IPC: 2.52807 cumulative IPC: 2.33010 (Simulation time: 0 hr 1 min 54 sec) 
Heartbeat CPU  0 instructions:   16000000 cycles:    7325717 heartbeat IPC: 2.29569 cumulative IPC: 2.18409 (Simulation time: 0 hr 1 min 55 sec) 
Heartbeat CPU  3 instructions:   19000003 cycles:    7351663 heartbeat IPC: 2.56536 cumulative IPC: 2.58445 (Simulation time: 0 hr 1 min 55 sec) 
Heartbeat CPU  2 instructions:   19000003 cycles:    7622106 heartbeat IPC: 2.49443 cumulative IPC: 2.49275 (Simulation time: 0 hr 2 min 0 sec) 
Heartbeat CPU  1 instructions:   18000001 cycles:    7690778 heartbeat IPC: 2.53197 cumulative IPC: 2.34047 (Simulation time: 0 hr 2 min 1 sec) 
Heartbeat CPU  3 instructions:   20000000 cycles:    7740365 heartbeat IPC: 2.57266 cumulative IPC: 2.58386 (Simulation time: 0 hr 2 min 1 sec) 
Heartbeat CPU  0 instructions:   17000001 cycles:    7790154 heartbeat IPC: 2.15315 cumulative IPC: 2.18224 (Simulation time: 0 hr 2 min 2 sec) 
Heartbeat CPU  2 instructions:   20000000 cycles:    8022390 heartbeat IPC: 2.49822 cumulative IPC: 2.49302 (Simulation time: 0 hr 2 min 6 sec) 
Heartbeat CPU  1 instructions:   19000000 cycles:    8086188 heartbeat IPC: 2.52902 cumulative IPC: 2.34969 (Simulation time: 0 hr 2 min 7 sec) 
Heartbeat CPU  3 instructions:   21000003 cycles:    8127819 heartbeat IPC: 2.58096 cumulative IPC: 2.58372 (Simulation time: 0 hr 2 min 8 sec) 
Heartbeat CPU  0 instructions:   18000000 cycles:    8233022 heartbeat IPC: 2.25801 cumulative IPC: 2.18632 (Simulation time: 0 hr 2 min 9 sec) 
Heartbeat CPU  2 instructions:   21000003 cycles:    8423921 heartbeat IPC: 2.49048 cumulative IPC: 2.49290 (Simulation time: 0 hr 2 min 12 sec) 
Heartbeat CPU  1 instructions:   20000000 cycles:    8481235 heartbeat IPC: 2.53134 cumulative IPC: 2.35815 (Simulation time: 0 hr 2 min 13 sec) 
Heartbeat CPU  3 instructions:   22000000 cycles:    8514759 heartbeat IPC: 2.58437 cumulative IPC: 2.58375 (Simulation time: 0 hr 2 min 14 sec) 
Heartbeat CPU  0 instructions:   19000000 cycles:    8671645 heartbeat IPC: 2.27986 cumulative IPC: 2.19105 (Simulation time: 0 hr 2 min 16 sec) 
Heartbeat CPU  2 instructions:   22000001 cycles:    8825385 heartbeat IPC: 2.49088 cumulative IPC: 2.49281 (Simulation time: 0 hr 2 min 18 sec) 
Heartbeat CPU  3 instructions:   23000002 cycles:    8903334 heartbeat IPC: 2.57351 cumulative IPC: 2.58330 (Simulation time: 0 hr 2 min 19 sec) 
Heartbeat CPU  1 instructions:   21000002 cycles:    9038950 heartbeat IPC: 1.79303 cumulative IPC: 2.32328 (Simulation time: 0 hr 2 min 22 sec) 
Heartbeat CPU  0 instructions:   20000000 cycles:    9118556 heartbeat IPC: 2.23758 cumulative IPC: 2.19333 (Simulation time: 0 hr 2 min 23 sec) 
Heartbeat CPU  2 instructions:   23000000 cycles:    9227969 heartbeat IPC: 2.48395 cumulative IPC: 2.49242 (Simulation time: 0 hr 2 min 25 sec) 
Heartbeat CPU  3 instructions:   24000000 cycles:    9290324 heartbeat IPC: 2.58404 cumulative IPC: 2.58333 (Simulation time: 0 hr 2 min 26 sec) 
Heartbeat CPU  1 instructions:   22000000 cycles:    9435511 heartbeat IPC: 2.52168 cumulative IPC: 2.33162 (Simulation time: 0 hr 2 min 28 sec) 
Heartbeat CPU  0 instructions:   21000003 cycles:    9578467 heartbeat IPC: 2.17434 cumulative IPC: 2.19242 (Simulation time: 0 hr 2 min 30 sec) 
Heartbeat CPU  2 instructions:   24000000 cycles:    9629220 heartbeat IPC: 2.49221 cumulative IPC: 2.49241 (Simulation time: 0 hr 2 min 31 sec) 
Heartbeat CPU  3 instructions:   25000003 cycles:    9678011 heartbeat IPC: 2.57941 cumulative IPC: 2.58318 (Simulation time: 0 hr 2 min 32 sec) 
Heartbeat CPU  1 instructions:   23000002 cycles:    9830948 heartbeat IPC: 2.52885 cumulative IPC: 2.33955 (Simulation time: 0 hr 2 min 35 sec) 
Heartbeat CPU  0 instructions:   22000002 cycles:   10015462 heartbeat IPC: 2.28835 cumulative IPC: 2.19660 (Simulation time: 0 hr 2 min 38 sec) 
Heartbeat CPU  2 instructions:   25000000 cycles:   10031753 heartbeat IPC: 2.48427 cumulative IPC: 2.49209 (Simulation time: 0 hr 2 min 38 sec) 
Heartbeat CPU  3 instructions:   26000003 cycles:   10062222 heartbeat IPC: 2.60274 cumulative IPC: 2.58392 (Simulation time: 0 hr 2 min 38 sec) 
Heartbeat CPU  1 instructions:   24000000 cycles:   10244744 heartbeat IPC: 2.41664 cumulative IPC: 2.34266 (Simulation time: 0 hr 2 min 41 sec) 
Heartbeat CPU  2 instructions:   26000003 cycles:   10434758 heartbeat IPC: 2.48137 cumulative IPC: 2.49167 (Simulation time: 0 hr 2 min 44 sec) 
Heartbeat CPU  3 instructions:   27000000 cycles:   10451586 heartbeat IPC: 2.56828 cumulative IPC: 2.58334 (Simulation time: 0 hr 2 min 44 sec) 
Heartbeat CPU  0 instructions:   23000000 cycles:   10515450 heartbeat IPC: 2.00004 cumulative IPC: 2.18726 (Simulation time: 0 hr 2 min 45 sec) 
Heartbeat CPU  1 instructions:   25000003 cycles:   10709797 heartbeat IPC: 2.15030 cumulative IPC: 2.33431 (Simulation time: 0 hr 2 min 48 sec) 
Heartbeat CPU  2 instructions:   27000003 cycles:   10839186 heartbeat IPC: 2.47263 cumulative IPC: 2.49096 (Simulation time: 0 hr 2 min 50 sec) 
Heartbeat CPU  3 instructions:   28000000 cycles:   10840141 heartbeat IPC: 2.57364 cumulative IPC: 2.58299 (Simulation time: 0 hr 2 min 50 sec) 
Heartbeat CPU  0 instructions:   24000000 cycles:   10944514 heartbeat IPC: 2.33065 cumulative IPC: 2.19288 (Simulation time: 0 hr 2 min 52 sec) 
Heartbeat CPU  1 instructions:   26000000 cycles:   11154429 heartbeat IPC: 2.24904 cumulative IPC: 2.33091 (Simulation time: 0 hr 2 min 55 sec) 
Heartbeat CPU  3 instructions:   29000000 cycles:   11227636 heartbeat IPC: 2.58068 cumulative IPC: 2.58291 (Simulation time: 0 hr 2 min 56 sec) 
Heartbeat CPU  2 instructions:   28000000 cycles:   11245361 heartbeat IPC: 2.46199 cumulative IPC: 2.48992 (Simulation time: 0 hr 2 min 57 sec) 
Heartbeat CPU  0 instructions:   25000000 cycles:   11380934 heartbeat IPC: 2.29137 cumulative IPC: 2.19666 (Simulation time: 0 hr 2 min 59 sec) 
Heartbeat CPU  1 instructions:   27000000 cycles:   11564497 heartbeat IPC: 2.43862 cumulative IPC: 2.33473 (Simulation time: 0 hr 3 min 2 sec) 
Heartbeat CPU  3 instructions:   30000000 cycles:   11615204 heartbeat IPC: 2.58019 cumulative IPC: 2.58282 (Simulation time: 0 hr 3 min 3 sec) 
Heartbeat CPU  2 instructions:   29000000 cycles:   11645490 heartbeat IPC: 2.49919 cumulative IPC: 2.49023 (Simulation time: 0 hr 3 min 3 sec) 
Heartbeat CPU  0 instructions:   26000000 cycles:   11812323 heartbeat IPC: 2.31809 cumulative IPC: 2.20109 (Simulation time: 0 hr 3 min 6 sec) 
Heartbeat CPU  1 instructions:   28000000 cycles:   11979944 heartbeat IPC: 2.40705 cumulative IPC: 2.33724 (Simulation time: 0 hr 3 min 9 sec) 
Heartbeat CPU  3 instructions:   31000001 cycles:   12004969 heartbeat IPC: 2.56565 cumulative IPC: 2.58226 (Simulation time: 0 hr 3 min 9 sec) 
Heartbeat CPU  2 instructions:   30000002 cycles:   12048474 heartbeat IPC: 2.48149 cumulative IPC: 2.48994 (Simulation time: 0 hr 3 min 10 sec) 
Heartbeat CPU  0 instructions:   27000003 cycles:   12255487 heartbeat IPC: 2.25651 cumulative IPC: 2.20309 (Simulation time: 0 hr 3 min 13 sec) 
Heartbeat CPU  3 instructions:   32000000 cycles:   12393959 heartbeat IPC: 2.57076 cumulative IPC: 2.58190 (Simulation time: 0 hr 3 min 15 sec) 
Heartbeat CPU  1 instructions:   29000000 cycles:   12406496 heartbeat IPC: 2.34438 cumulative IPC: 2.33749 (Simulation time: 0 hr 3 min 15 sec) 
Heartbeat CPU  2 instructions:   31000003 cycles:   12449907 heartbeat IPC: 2.49108 cumulative IPC: 2.48998 (Simulation time: 0 hr 3 min 16 sec) 
Heartbeat CPU  3 instructions:   33000002 cycles:   12782937 heartbeat IPC: 2.57084 cumulative IPC: 2.58157 (Simulation time: 0 hr 3 min 21 sec) 
Heartbeat CPU  1 instructions:   30000000 cycles:   12803191 heartbeat IPC: 2.52083 cumulative IPC: 2.34317 (Simulation time: 0 hr 3 min 21 sec) 
Heartbeat CPU  2 instructions:   32000000 cycles:   12851291 heartbeat IPC: 2.49137 cumulative IPC: 2.49002 (Simulation time: 0 hr 3 min 22 sec) 
Heartbeat CPU  0 instructions:   28000000 cycles:   12856940 heartbeat IPC: 1.66264 cumulative IPC: 2.17781 (Simulation time: 0 hr 3 min 22 sec) 
Heartbeat CPU  3 instructions:   34000000 cycles:   13170962 heartbeat IPC: 2.57715 cumulative IPC: 2.58144 (Simulation time: 0 hr 3 min 27 sec) 
Heartbeat CPU  2 instructions:   33000003 cycles:   13253254 heartbeat IPC: 2.48780 cumulative IPC: 2.48995 (Simulation time: 0 hr 3 min 28 sec) 
Heartbeat CPU  1 instructions:   31000001 cycles:   13268376 heartbeat IPC: 2.14968 cumulative IPC: 2.33638 (Simulation time: 0 hr 3 min 28 sec) 
Heartbeat CPU  0 instructions:   29000003 cycles:   13294811 heartbeat IPC: 2.28378 cumulative IPC: 2.18130 (Simulation time: 0 hr 3 min 29 sec) 
Heartbeat CPU  3 instructions:   35000000 cycles:   13558917 heartbeat IPC: 2.57762 cumulative IPC: 2.58133 (Simulation time: 0 hr 3 min 33 sec) 
Heartbeat CPU  2 instructions:   34000000 cycles:   13655494 heartbeat IPC: 2.48607 cumulative IPC: 2.48984 (Simulation time: 0 hr 3 min 35 sec) 
Heartbeat CPU  1 instructions:   32000000 cycles:   13663895 heartbeat IPC: 2.52832 cumulative IPC: 2.34194 (Simulation time: 0 hr 3 min 35 sec) 
Heartbeat CPU  0 instructions:   30000000 cycles:   13731969 heartbeat IPC: 2.28750 cumulative IPC: 2.18468 (Simulation time: 0 hr 3 min 36 sec) 
Heartbeat CPU  3 instructions:   36000000 cycles:   13948536 heartbeat IPC: 2.56661 cumulative IPC: 2.58092 (Simulation time: 0 hr 3 min 40 sec) 
Heartbeat CPU  2 instructions:   35000001 cycles:   14057586 heartbeat IPC: 2.48700 cumulative IPC: 2.48976 (Simulation time: 0 hr 3 min 41 sec) 
Heartbeat CPU  1 instructions:   33000001 cycles:   14059541 heartbeat IPC: 2.52751 cumulative IPC: 2.34716 (Simulation time: 0 hr 3 min 41 sec) 
Heartbeat CPU  0 instructions:   31000002 cycles:   14177054 heartbeat IPC: 2.24677 cumulative IPC: 2.18663 (Simulation time: 0 hr 3 min 43 sec) 
Heartbeat CPU  3 instructions:   37000000 cycles:   14335333 heartbeat IPC: 2.58534 cumulative IPC: 2.58104 (Simulation time: 0 hr 3 min 46 sec) 
Heartbeat CPU  1 instructions:   34000003 cycles:   14455497 heartbeat IPC: 2.52554 cumulative IPC: 2.35205 (Simulation time: 0 hr 3 min 48 sec) 
Heartbeat CPU  2 instructions:   36000000 cycles:   14459416 heartbeat IPC: 2.48861 cumulative IPC: 2.48973 (Simulation time: 0 hr 3 min 48 sec) 
Heartbeat CPU  0 instructions:   32000000 cycles:   14636415 heartbeat IPC: 2.17693 cumulative IPC: 2.18633 (Simulation time: 0 hr 3 min 51 sec) 
Heartbeat CPU  3 instructions:   38000003 cycles:   14724014 heartbeat IPC: 2.57281 cumulative IPC: 2.58082 (Simulation time: 0 hr 3 min 52 sec) 
Heartbeat CPU  1 instructions:   35000002 cycles:   14849749 heartbeat IPC: 2.53645 cumulative IPC: 2.35694 (Simulation time: 0 hr 3 min 54 sec) 
Heartbeat CPU  2 instructions:   37000000 cycles:   14860229 heartbeat IPC: 2.49493 cumulative IPC: 2.48987 (Simulation time: 0 hr 3 min 54 sec) 
Heartbeat CPU  0 instructions:   33000001 cycles:   15067445 heartbeat IPC: 2.32003 cumulative IPC: 2.19015 (Simulation time: 0 hr 3 min 57 sec) 
Heartbeat CPU  3 instructions:   39000002 cycles:   15111614 heartbeat IPC: 2.57998 cumulative IPC: 2.58080 (Simulation time: 0 hr 3 min 58 sec) 
Heartbeat CPU  2 instructions:   38000003 cycles:   15260498 heartbeat IPC: 2.49833 cumulative IPC: 2.49009 (Simulation time: 0 hr 4 min 0 sec) 
Heartbeat CPU  1 instructions:   36000000 cycles:   15407272 heartbeat IPC: 1.79364 cumulative IPC: 2.33656 (Simulation time: 0 hr 4 min 3 sec) 
Heartbeat CPU  3 instructions:   40000000 cycles:   15499684 heartbeat IPC: 2.57685 cumulative IPC: 2.58070 (Simulation time: 0 hr 4 min 4 sec) 
Heartbeat CPU  0 instructions:   34000000 cycles:   15512167 heartbeat IPC: 2.24859 cumulative IPC: 2.19183 (Simulation time: 0 hr 4 min 5 sec) 
Heartbeat CPU  2 instructions:   39000000 cycles:   15662627 heartbeat IPC: 2.48676 cumulative IPC: 2.49000 (Simulation time: 0 hr 4 min 7 sec) 
Heartbeat CPU  1 instructions:   37000000 cycles:   15805769 heartbeat IPC: 2.50943 cumulative IPC: 2.34092 (Simulation time: 0 hr 4 min 9 sec) 
Heartbeat CPU  3 instructions:   41000000 cycles:   15882593 heartbeat IPC: 2.61159 cumulative IPC: 2.58144 (Simulation time: 0 hr 4 min 11 sec) 
Heartbeat CPU  0 instructions:   35000003 cycles:   15976731 heartbeat IPC: 2.15256 cumulative IPC: 2.19069 (Simulation time: 0 hr 4 min 12 sec) 
Heartbeat CPU  2 instructions:   40000000 cycles:   16064225 heartbeat IPC: 2.49005 cumulative IPC: 2.49001 (Simulation time: 0 hr 4 min 14 sec) 
Heartbeat CPU  1 instructions:   38000000 cycles:   16200295 heartbeat IPC: 2.53469 cumulative IPC: 2.34564 (Simulation time: 0 hr 4 min 16 sec) 
Heartbeat CPU  3 instructions:   42000003 cycles:   16266440 heartbeat IPC: 2.60521 cumulative IPC: 2.58200 (Simulation time: 0 hr 4 min 17 sec) 
Heartbeat CPU  0 instructions:   36000000 cycles:   16409769 heartbeat IPC: 2.30926 cumulative IPC: 2.19382 (Simulation time: 0 hr 4 min 19 sec) 
Heartbeat CPU  2 instructions:   41000000 cycles:   16464214 heartbeat IPC: 2.50007 cumulative IPC: 2.49025 (Simulation time: 0 hr 4 min 20 sec) 
Heartbeat CPU  1 instructions:   39000000 cycles:   16628180 heartbeat IPC: 2.33708 cumulative IPC: 2.34542 (Simulation time: 0 hr 4 min 23 sec) 
Heartbeat CPU  3 instructions:   43000002 cycles:   16654777 heartbeat IPC: 2.57508 cumulative IPC: 2.58184 (Simulation time: 0 hr 4 min 23 sec) 
Heartbeat CPU  0 instructions:   37000000 cycles:   16843326 heartbeat IPC: 2.30650 cumulative IPC: 2.19672 (Simulation time: 0 hr 4 min 26 sec) 
Heartbeat CPU  2 instructions:   42000002 cycles:   16865488 heartbeat IPC: 2.49207 cumulative IPC: 2.49029 (Simulation time: 0 hr 4 min 27 sec) 
Heartbeat CPU  3 instructions:   44000000 cycles:   17042953 heartbeat IPC: 2.57615 cumulative IPC: 2.58171 (Simulation time: 0 hr 4 min 29 sec) 
Heartbeat CPU  1 instructions:   40000000 cycles:   17096089 heartbeat IPC: 2.13717 cumulative IPC: 2.33972 (Simulation time: 0 hr 4 min 30 sec) 
Heartbeat CPU  2 instructions:   43000000 cycles:   17267057 heartbeat IPC: 2.49023 cumulative IPC: 2.49029 (Simulation time: 0 hr 4 min 33 sec) 
Heartbeat CPU  0 instructions:   38000003 cycles:   17342286 heartbeat IPC: 2.00417 cumulative IPC: 2.19118 (Simulation time: 0 hr 4 min 34 sec) 
Heartbeat CPU  3 instructions:   45000003 cycles:   17431638 heartbeat IPC: 2.57279 cumulative IPC: 2.58151 (Simulation time: 0 hr 4 min 35 sec) 
Heartbeat CPU  1 instructions:   41000002 cycles:   17524646 heartbeat IPC: 2.33342 cumulative IPC: 2.33956 (Simulation time: 0 hr 4 min 37 sec) 
Heartbeat CPU  2 instructions:   44000000 cycles:   17669142 heartbeat IPC: 2.48704 cumulative IPC: 2.49022 (Simulation time: 0 hr 4 min 39 sec) 
Heartbeat CPU  0 instructions:   39000003 cycles:   17770705 heartbeat IPC: 2.33416 cumulative IPC: 2.19462 (Simulation time: 0 hr 4 min 41 sec) 
Heartbeat CPU  3 instructions:   46000003 cycles:   17819584 heartbeat IPC: 2.57768 cumulative IPC: 2.58143 (Simulation time: 0 hr 4 min 42 sec) 
Heartbeat CPU  1 instructions:   42000001 cycles:   17943772 heartbeat IPC: 2.38592 cumulative IPC: 2.34065 (Simulation time: 0 hr 4 min 44 sec) 
Heartbeat CPU  2 instructions:   45000002 cycles:   18071027 heartbeat IPC: 2.48828 cumulative IPC: 2.49017 (Simulation time: 0 hr 4 min 46 sec) 
Heartbeat CPU  3 instructions:   47000000 cycles:   18207952 heartbeat IPC: 2.57487 cumulative IPC: 2.58129 (Simulation time: 0 hr 4 min 48 sec) 
Heartbeat CPU  0 instructions:   40000000 cycles:   18208686 heartbeat IPC: 2.28320 cumulative IPC: 2.19675 (Simulation time: 0 hr 4 min 48 sec) 
Heartbeat CPU  1 instructions:   43000000 cycles:   18358109 heartbeat IPC: 2.41349 cumulative IPC: 2.34229 (Simulation time: 0 hr 4 min 50 sec) 
Heartbeat CPU  2 instructions:   46000003 cycles:   18473840 heartbeat IPC: 2.48254 cumulative IPC: 2.49001 (Simulation time: 0 hr 4 min 52 sec) 
Heartbeat CPU  3 instructions:   48000000 cycles:   18596615 heartbeat IPC: 2.57292 cumulative IPC: 2.58112 (Simulation time: 0 hr 4 min 54 sec) 
Heartbeat CPU  0 instructions:   41000000 cycles:   18640374 heartbeat IPC: 2.31649 cumulative IPC: 2.19953 (Simulation time: 0 hr 4 min 55 sec) 
Heartbeat CPU  1 instructions:   44000000 cycles:   18771826 heartbeat IPC: 2.41711 cumulative IPC: 2.34394 (Simulation time: 0 hr 4 min 57 sec) 
Heartbeat CPU  2 instructions:   47000000 cycles:   18877085 heartbeat IPC: 2.47987 cumulative IPC: 2.48979 (Simulation time: 0 hr 4 min 59 sec) 
Heartbeat CPU  3 instructions:   49000001 cycles:   18983959 heartbeat IPC: 2.58169 cumulative IPC: 2.58113 (Simulation time: 0 hr 5 min 1 sec) 
Heartbeat CPU  1 instructions:   45000001 cycles:   19173926 heartbeat IPC: 2.48695 cumulative IPC: 2.34694 (Simulation time: 0 hr 5 min 3 sec) 
Heartbeat CPU  0 instructions:   42000001 cycles:   19221798 heartbeat IPC: 1.71992 cumulative IPC: 2.18502 (Simulation time: 0 hr 5 min 4 sec) 
Heartbeat CPU  2 instructions:   48000000 cycles:   19279972 heartbeat IPC: 2.48209 cumulative IPC: 2.48963 (Simulation time: 0 hr 5 min 5 sec) 
Heartbeat CPU  3 instructions:   50000001 cycles:   19370931 heartbeat IPC: 2.58417 cumulative IPC: 2.58119 (Simulation time: 0 hr 5 min 6 sec) 
Heartbeat CPU  1 instructions:   46000000 cycles:   19639840 heartbeat IPC: 2.14632 cumulative IPC: 2.34218 (Simulation time: 0 hr 5 min 11 sec) 
Heartbeat CPU  0 instructions:   43000003 cycles:   19678690 heartbeat IPC: 2.18871 cumulative IPC: 2.18510 (Simulation time: 0 hr 5 min 11 sec) 
Heartbeat CPU  2 instructions:   49000001 cycles:   19683400 heartbeat IPC: 2.47876 cumulative IPC: 2.48941 (Simulation time: 0 hr 5 min 11 sec) 
Heartbeat CPU  3 instructions:   51000003 cycles:   19758691 heartbeat IPC: 2.57892 cumulative IPC: 0.05061 (Simulation time: 0 hr 5 min 13 sec) 
Heartbeat CPU  1 instructions:   47000000 cycles:   20048032 heartbeat IPC: 2.44983 cumulative IPC: 2.34437 (Simulation time: 0 hr 5 min 17 sec) 
Heartbeat CPU  2 instructions:   50000003 cycles:   20084894 heartbeat IPC: 2.49070 cumulative IPC: 2.48943 (Simulation time: 0 hr 5 min 18 sec) 
Heartbeat CPU  0 instructions:   44000000 cycles:   20117218 heartbeat IPC: 2.28035 cumulative IPC: 2.18718 (Simulation time: 0 hr 5 min 18 sec) 
Heartbeat CPU  3 instructions:   52000000 cycles:   20144532 heartbeat IPC: 2.59173 cumulative IPC: 0.09928 (Simulation time: 0 hr 5 min 19 sec) 
Heartbeat CPU  1 instructions:   48000000 cycles:   20443113 heartbeat IPC: 2.53113 cumulative IPC: 2.34798 (Simulation time: 0 hr 5 min 24 sec) 
Heartbeat CPU  2 instructions:   51000002 cycles:   20488424 heartbeat IPC: 2.47813 cumulative IPC: 0.04881 (Simulation time: 0 hr 5 min 25 sec) 
Heartbeat CPU  3 instructions:   53000003 cycles:   20532634 heartbeat IPC: 2.57665 cumulative IPC: 0.14611 (Simulation time: 0 hr 5 min 25 sec) 
Heartbeat CPU  0 instructions:   45000000 cycles:   20545788 heartbeat IPC: 2.33334 cumulative IPC: 2.19023 (Simulation time: 0 hr 5 min 26 sec) 
Heartbeat CPU  1 instructions:   49000002 cycles:   20839611 heartbeat IPC: 2.52209 cumulative IPC: 2.35129 (Simulation time: 0 hr 5 min 30 sec) 
Heartbeat CPU  2 instructions:   52000000 cycles:   20906619 heartbeat IPC: 2.39122 cumulative IPC: 0.09566 (Simulation time: 0 hr 5 min 31 sec) 
Heartbeat CPU  3 instructions:   54000000 cycles:   20920450 heartbeat IPC: 2.57853 cumulative IPC: 0.19120 (Simulation time: 0 hr 5 min 31 sec) 
Heartbeat CPU  0 instructions:   46000001 cycles:   21009496 heartbeat IPC: 2.15653 cumulative IPC: 2.18949 (Simulation time: 0 hr 5 min 33 sec) 
Heartbeat CPU  1 instructions:   50000000 cycles:   21233813 heartbeat IPC: 2.53677 cumulative IPC: 2.35473 (Simulation time: 0 hr 5 min 37 sec) 
Heartbeat CPU  3 instructions:   55000001 cycles:   21309099 heartbeat IPC: 2.57302 cumulative IPC: 0.23464 (Simulation time: 0 hr 5 min 38 sec) 
Heartbeat CPU  2 instructions:   53000001 cycles:   21309165 heartbeat IPC: 2.48419 cumulative IPC: 0.14078 (Simulation time: 0 hr 5 min 38 sec) 
Heartbeat CPU  0 instructions:   47000001 cycles:   21468723 heartbeat IPC: 2.17757 cumulative IPC: 2.18923 (Simulation time: 0 hr 5 min 40 sec) 
Heartbeat CPU  3 instructions:   56000000 cycles:   21697618 heartbeat IPC: 2.57387 cumulative IPC: 0.27653 (Simulation time: 0 hr 5 min 43 sec) 
Heartbeat CPU  2 instructions:   54000001 cycles:   21704019 heartbeat IPC: 2.53258 cumulative IPC: 0.18430 (Simulation time: 0 hr 5 min 44 sec) 
Heartbeat CPU  1 instructions:   51000003 cycles:   21792828 heartbeat IPC: 1.78887 cumulative IPC: 0.04589 (Simulation time: 0 hr 5 min 45 sec) 
Heartbeat CPU  0 instructions:   48000000 cycles:   21903682 heartbeat IPC: 2.29906 cumulative IPC: 2.19141 (Simulation time: 0 hr 5 min 47 sec) 
Heartbeat CPU  3 instructions:   57000003 cycles:   22086143 heartbeat IPC: 2.57384 cumulative IPC: 0.31694 (Simulation time: 0 hr 5 min 50 sec) 
Heartbeat CPU  2 instructions:   55000003 cycles:   22092226 heartbeat IPC: 2.57595 cumulative IPC: 0.22632 (Simulation time: 0 hr 5 min 50 sec) 
Heartbeat CPU  1 instructions:   52000000 cycles:   22189722 heartbeat IPC: 2.51956 cumulative IPC: 0.09013 (Simulation time: 0 hr 5 min 52 sec) 
Heartbeat CPU  0 instructions:   49000001 cycles:   22345647 heartbeat IPC: 2.26262 cumulative IPC: 2.19282 (Simulation time: 0 hr 5 min 54 sec) 
Heartbeat CPU  3 instructions:   58000002 cycles:   22474228 heartbeat IPC: 2.57675 cumulative IPC: 0.35596 (Simulation time: 0 hr 5 min 57 sec) 
Heartbeat CPU  2 instructions:   56000000 cycles:   22482596 heartbeat IPC: 2.56166 cumulative IPC: 0.26687 (Simulation time: 0 hr 5 min 57 sec) 
Heartbeat CPU  1 instructions:   53000001 cycles:   22586116 heartbeat IPC: 2.52275 cumulative IPC: 0.13283 (Simulation time: 0 hr 5 min 58 sec) 
Heartbeat CPU  0 instructions:   50000001 cycles:   22810219 heartbeat IPC: 2.15252 cumulative IPC: 2.19200 (Simulation time: 0 hr 6 min 2 sec) 

Warmup complete CPU  0 instructions:   50000001 cycles:   22810219 (Simulation time: 0 hr 6 min 2 sec) 
Warmup complete CPU  1 instructions:   53534244 cycles:   22810218 (Simulation time: 0 hr 6 min 2 sec) 
Warmup complete CPU  2 instructions:   56841221 cycles:   22810219 (Simulation time: 0 hr 6 min 2 sec) 
Warmup complete CPU  3 instructions:   58865838 cycles:   22810218 (Simulation time: 0 hr 6 min 2 sec) 

Heartbeat CPU  3 instructions:   59000003 cycles:   23654723 heartbeat IPC: 0.84710 cumulative IPC: 0.15887 (Simulation time: 0 hr 6 min 3 sec) 
Heartbeat CPU  2 instructions:   57000000 cycles:   23833838 heartbeat IPC: 0.74006 cumulative IPC: 0.15512 (Simulation time: 0 hr 6 min 4 sec) 
Heartbeat CPU  1 instructions:   54000001 cycles:   24926960 heartbeat IPC: 0.42720 cumulative IPC: 0.22003 (Simulation time: 0 hr 6 min 6 sec) 
Heartbeat CPU  1 instructions:   55000001 cycles:   29701088 heartbeat IPC: 0.20946 cumulative IPC: 0.21271 (Simulation time: 0 hr 6 min 13 sec) 
Heartbeat CPU  3 instructions:   60000000 cycles:   29897993 heartbeat IPC: 0.16017 cumulative IPC: 0.16002 (Simulation time: 0 hr 6 min 14 sec) 
Heartbeat CPU  2 instructions:   58000001 cycles:   30292589 heartbeat IPC: 0.15483 cumulative IPC: 0.15487 (Simulation time: 0 hr 6 min 14 sec) 
Heartbeat CPU  0 instructions:   51000000 cycles:   31217086 heartbeat IPC: 0.11895 cumulative IPC: 0.11895 (Simulation time: 0 hr 6 min 16 sec) 
Heartbeat CPU  3 instructions:   61000001 cycles:   36132314 heartbeat IPC: 0.16040 cumulative IPC: 0.16020 (Simulation time: 0 hr 6 min 23 sec) 
Heartbeat CPU  2 instructions:   59000001 cycles:   36732226 heartbeat IPC: 0.15529 cumulative IPC: 0.15506 (Simulation time: 0 hr 6 min 24 sec) 
Heartbeat CPU  1 instructions:   56000000 cycles:   37027291 heartbeat IPC: 0.13650 cumulative IPC: 0.17344 (Simulation time: 0 hr 6 min 24 sec) 
Heartbeat CPU  0 instructions:   52000000 cycles:   39626673 heartbeat IPC: 0.11891 cumulative IPC: 0.11893 (Simulation time: 0 hr 6 min 28 sec) 
Heartbeat CPU  3 instructions:   62000000 cycles:   42401842 heartbeat IPC: 0.15950 cumulative IPC: 0.15997 (Simulation time: 0 hr 6 min 32 sec) 
Heartbeat CPU  2 instructions:   60000000 cycles:   43184381 heartbeat IPC: 0.15499 cumulative IPC: 0.15504 (Simulation time: 0 hr 6 min 33 sec) 
Heartbeat CPU  1 instructions:   57000000 cycles:   45259554 heartbeat IPC: 0.12147 cumulative IPC: 0.15438 (Simulation time: 0 hr 6 min 36 sec) 
Heartbeat CPU  0 instructions:   53000003 cycles:   47979803 heartbeat IPC: 0.11972 cumulative IPC: 0.11919 (Simulation time: 0 hr 6 min 40 sec) 
Heartbeat CPU  3 instructions:   63000003 cycles:   48678938 heartbeat IPC: 0.15931 cumulative IPC: 0.15981 (Simulation time: 0 hr 6 min 41 sec) 
Heartbeat CPU  2 instructions:   61000000 cycles:   49644398 heartbeat IPC: 0.15480 cumulative IPC: 0.15498 (Simulation time: 0 hr 6 min 42 sec) 
Heartbeat CPU  1 instructions:   58000003 cycles:   53497257 heartbeat IPC: 0.12139 cumulative IPC: 0.14553 (Simulation time: 0 hr 6 min 48 sec) 
Heartbeat CPU  3 instructions:   64000000 cycles:   54950987 heartbeat IPC: 0.15944 cumulative IPC: 0.15974 (Simulation time: 0 hr 6 min 50 sec) 
Heartbeat CPU  2 instructions:   62000000 cycles:   56111548 heartbeat IPC: 0.15463 cumulative IPC: 0.15491 (Simulation time: 0 hr 6 min 52 sec) 
Heartbeat CPU  0 instructions:   54000002 cycles:   56375589 heartbeat IPC: 0.11911 cumulative IPC: 0.11917 (Simulation time: 0 hr 6 min 52 sec) 
Heartbeat CPU  3 instructions:   65000001 cycles:   61227266 heartbeat IPC: 0.15933 cumulative IPC: 0.15967 (Simulation time: 0 hr 6 min 59 sec) 
Heartbeat CPU  1 instructions:   59000003 cycles:   61810691 heartbeat IPC: 0.12029 cumulative IPC: 0.14015 (Simulation time: 0 hr 7 min 0 sec) 
Heartbeat CPU  2 instructions:   63000002 cycles:   62580026 heartbeat IPC: 0.15460 cumulative IPC: 0.15486 (Simulation time: 0 hr 7 min 1 sec) 
Heartbeat CPU  0 instructions:   55000002 cycles:   64825615 heartbeat IPC: 0.11834 cumulative IPC: 0.11900 (Simulation time: 0 hr 7 min 4 sec) 
Heartbeat CPU  3 instructions:   66000002 cycles:   67516500 heartbeat IPC: 0.15900 cumulative IPC: 0.15958 (Simulation time: 0 hr 7 min 8 sec) 
Heartbeat CPU  2 instructions:   64000000 cycles:   69058290 heartbeat IPC: 0.15436 cumulative IPC: 0.15479 (Simulation time: 0 hr 7 min 10 sec) 
Heartbeat CPU  1 instructions:   60000000 cycles:   70175319 heartbeat IPC: 0.11955 cumulative IPC: 0.13651 (Simulation time: 0 hr 7 min 12 sec) 
Heartbeat CPU  0 instructions:   56000000 cycles:   73269069 heartbeat IPC: 0.11843 cumulative IPC: 0.11891 (Simulation time: 0 hr 7 min 16 sec) 
Heartbeat CPU  3 instructions:   67000002 cycles:   73885507 heartbeat IPC: 0.15701 cumulative IPC: 0.15926 (Simulation time: 0 hr 7 min 17 sec) 
Heartbeat CPU  2 instructions:   65000000 cycles:   75504364 heartbeat IPC: 0.15513 cumulative IPC: 0.15483 (Simulation time: 0 hr 7 min 20 sec) 
Heartbeat CPU  1 instructions:   61000003 cycles:   78459969 heartbeat IPC: 0.12071 cumulative IPC: 0.13416 (Simulation time: 0 hr 7 min 24 sec) 
Heartbeat CPU  3 instructions:   68000000 cycles:   80242209 heartbeat IPC: 0.15731 cumulative IPC: 0.15904 (Simulation time: 0 hr 7 min 27 sec) 
Heartbeat CPU  0 instructions:   57000002 cycles:   81943021 heartbeat IPC: 0.11529 cumulative IPC: 0.11838 (Simulation time: 0 hr 7 min 29 sec) 
Heartbeat CPU  2 instructions:   66000001 cycles:   81977663 heartbeat IPC: 0.15448 cumulative IPC: 0.15479 (Simulation time: 0 hr 7 min 29 sec) 
Heartbeat CPU  3 instructions:   69000000 cycles:   86578523 heartbeat IPC: 0.15782 cumulative IPC: 0.15892 (Simulation time: 0 hr 7 min 36 sec) 
Heartbeat CPU  1 instructions:   62000003 cycles:   86753347 heartbeat IPC: 0.12058 cumulative IPC: 0.13240 (Simulation time: 0 hr 7 min 36 sec) 
Heartbeat CPU  2 instructions:   67000000 cycles:   88416031 heartbeat IPC: 0.15532 cumulative IPC: 0.15485 (Simulation time: 0 hr 7 min 38 sec) 
Heartbeat CPU  0 instructions:   58000000 cycles:   90389474 heartbeat IPC: 0.11839 cumulative IPC: 0.11838 (Simulation time: 0 hr 7 min 41 sec) 
Heartbeat CPU  3 instructions:   70000002 cycles:   92925139 heartbeat IPC: 0.15756 cumulative IPC: 0.15880 (Simulation time: 0 hr 7 min 45 sec) 
Heartbeat CPU  2 instructions:   68000000 cycles:   94881508 heartbeat IPC: 0.15467 cumulative IPC: 0.15483 (Simulation time: 0 hr 7 min 48 sec) 
Heartbeat CPU  1 instructions:   63000003 cycles:   95079422 heartbeat IPC: 0.12010 cumulative IPC: 0.13098 (Simulation time: 0 hr 7 min 48 sec) 
Heartbeat CPU  0 instructions:   59000003 cycles:   98888136 heartbeat IPC: 0.11767 cumulative IPC: 0.11830 (Simulation time: 0 hr 7 min 53 sec) 
Heartbeat CPU  3 instructions:   71000002 cycles:   99260315 heartbeat IPC: 0.15785 cumulative IPC: 0.15872 (Simulation time: 0 hr 7 min 54 sec) 
Heartbeat CPU  2 instructions:   69000002 cycles:  101343950 heartbeat IPC: 0.15474 cumulative IPC: 0.15482 (Simulation time: 0 hr 7 min 57 sec) 
Heartbeat CPU  1 instructions:   64000000 cycles:  103426453 heartbeat IPC: 0.11980 cumulative IPC: 0.12982 (Simulation time: 0 hr 8 min 0 sec) 
Heartbeat CPU  3 instructions:   72000000 cycles:  105621435 heartbeat IPC: 0.15720 cumulative IPC: 0.15860 (Simulation time: 0 hr 8 min 3 sec) 
Heartbeat CPU  0 instructions:   60000000 cycles:  106681580 heartbeat IPC: 0.12831 cumulative IPC: 0.11923 (Simulation time: 0 hr 8 min 5 sec) 
Heartbeat CPU  2 instructions:   70000003 cycles:  107778463 heartbeat IPC: 0.15541 cumulative IPC: 0.15487 (Simulation time: 0 hr 8 min 7 sec) 
Heartbeat CPU  0 instructions:   61000003 cycles:  111220030 heartbeat IPC: 0.22034 cumulative IPC: 0.12442 (Simulation time: 0 hr 8 min 13 sec) 
Heartbeat CPU  1 instructions:   65000001 cycles:  111918494 heartbeat IPC: 0.11776 cumulative IPC: 0.12867 (Simulation time: 0 hr 8 min 14 sec) 
Heartbeat CPU  3 instructions:   73000001 cycles:  111967993 heartbeat IPC: 0.15757 cumulative IPC: 0.15853 (Simulation time: 0 hr 8 min 14 sec) 
Heartbeat CPU  2 instructions:   71000000 cycles:  114276072 heartbeat IPC: 0.15390 cumulative IPC: 0.15480 (Simulation time: 0 hr 8 min 17 sec) 
Heartbeat CPU  0 instructions:   62000000 cycles:  116990429 heartbeat IPC: 0.17330 cumulative IPC: 0.12742 (Simulation time: 0 hr 8 min 21 sec) 
Heartbeat CPU  3 instructions:   74000000 cycles:  118312956 heartbeat IPC: 0.15761 cumulative IPC: 0.15847 (Simulation time: 0 hr 8 min 23 sec) 
Heartbeat CPU  1 instructions:   66000002 cycles:  120264399 heartbeat IPC: 0.11982 cumulative IPC: 0.12791 (Simulation time: 0 hr 8 min 26 sec) 
Heartbeat CPU  2 instructions:   72000000 cycles:  120705307 heartbeat IPC: 0.15554 cumulative IPC: 0.15485 (Simulation time: 0 hr 8 min 27 sec) 
Heartbeat CPU  3 instructions:   75000000 cycles:  124675907 heartbeat IPC: 0.15716 cumulative IPC: 0.15839 (Simulation time: 0 hr 8 min 32 sec) 
Heartbeat CPU  0 instructions:   63000001 cycles:  125377851 heartbeat IPC: 0.11923 cumulative IPC: 0.12675 (Simulation time: 0 hr 8 min 33 sec) 
Heartbeat CPU  2 instructions:   73000003 cycles:  127156756 heartbeat IPC: 0.15500 cumulative IPC: 0.15486 (Simulation time: 0 hr 8 min 36 sec) 
Heartbeat CPU  1 instructions:   67000002 cycles:  128681893 heartbeat IPC: 0.11880 cumulative IPC: 0.12719 (Simulation time: 0 hr 8 min 38 sec) 
Heartbeat CPU  3 instructions:   76000000 cycles:  131050713 heartbeat IPC: 0.15687 cumulative IPC: 0.15830 (Simulation time: 0 hr 8 min 42 sec) 
Heartbeat CPU  2 instructions:   74000000 cycles:  133598491 heartbeat IPC: 0.15524 cumulative IPC: 0.15488 (Simulation time: 0 hr 8 min 45 sec) 
Heartbeat CPU  0 instructions:   64000000 cycles:  133686318 heartbeat IPC: 0.12036 cumulative IPC: 0.12627 (Simulation time: 0 hr 8 min 45 sec) 
Heartbeat CPU  1 instructions:   68000000 cycles:  137115679 heartbeat IPC: 0.11857 cumulative IPC: 0.12655 (Simulation time: 0 hr 8 min 50 sec) 
Heartbeat CPU  3 instructions:   77000001 cycles:  137413140 heartbeat IPC: 0.15717 cumulative IPC: 0.15823 (Simulation time: 0 hr 8 min 51 sec) 
Heartbeat CPU  2 instructions:   75000003 cycles:  140087278 heartbeat IPC: 0.15411 cumulative IPC: 0.15484 (Simulation time: 0 hr 8 min 55 sec) 
Heartbeat CPU  0 instructions:   65000003 cycles:  142010307 heartbeat IPC: 0.12014 cumulative IPC: 0.12584 (Simulation time: 0 hr 8 min 58 sec) 
Heartbeat CPU  1 instructions:   69000001 cycles:  142279423 heartbeat IPC: 0.19366 cumulative IPC: 0.12945 (Simulation time: 0 hr 8 min 59 sec) 
Heartbeat CPU  3 instructions:   78000002 cycles:  143760922 heartbeat IPC: 0.15754 cumulative IPC: 0.15820 (Simulation time: 0 hr 9 min 1 sec) 
Heartbeat CPU  2 instructions:   76000000 cycles:  146579575 heartbeat IPC: 0.15403 cumulative IPC: 0.15479 (Simulation time: 0 hr 9 min 6 sec) 
Heartbeat CPU  1 instructions:   70000002 cycles:  147373674 heartbeat IPC: 0.19630 cumulative IPC: 0.13219 (Simulation time: 0 hr 9 min 7 sec) 
Heartbeat CPU  3 instructions:   79000000 cycles:  150084506 heartbeat IPC: 0.15814 cumulative IPC: 0.15820 (Simulation time: 0 hr 9 min 11 sec) 
Heartbeat CPU  0 instructions:   66000000 cycles:  150415295 heartbeat IPC: 0.11898 cumulative IPC: 0.12539 (Simulation time: 0 hr 9 min 12 sec) 
Heartbeat CPU  2 instructions:   77000001 cycles:  153060184 heartbeat IPC: 0.15431 cumulative IPC: 0.15477 (Simulation time: 0 hr 9 min 15 sec) 
Heartbeat CPU  1 instructions:   71000001 cycles:  155130866 heartbeat IPC: 0.12891 cumulative IPC: 0.13200 (Simulation time: 0 hr 9 min 18 sec) 
Heartbeat CPU  3 instructions:   80000000 cycles:  156428829 heartbeat IPC: 0.15762 cumulative IPC: 0.15817 (Simulation time: 0 hr 9 min 20 sec) 
Heartbeat CPU  0 instructions:   67000002 cycles:  158724560 heartbeat IPC: 0.12035 cumulative IPC: 0.12508 (Simulation time: 0 hr 9 min 23 sec) 
Heartbeat CPU  2 instructions:   78000001 cycles:  159555573 heartbeat IPC: 0.15396 cumulative IPC: 0.15473 (Simulation time: 0 hr 9 min 25 sec) 
Heartbeat CPU  3 instructions:   81000001 cycles:  162790335 heartbeat IPC: 0.15720 cumulative IPC: 0.15812 (Simulation time: 0 hr 9 min 29 sec) 
Heartbeat CPU  1 instructions:   72000000 cycles:  163379539 heartbeat IPC: 0.12123 cumulative IPC: 0.13136 (Simulation time: 0 hr 9 min 30 sec) 
Heartbeat CPU  2 instructions:   79000000 cycles:  166008584 heartbeat IPC: 0.15497 cumulative IPC: 0.15474 (Simulation time: 0 hr 9 min 34 sec) 
Heartbeat CPU  0 instructions:   68000000 cycles:  167104263 heartbeat IPC: 0.11934 cumulative IPC: 0.12475 (Simulation time: 0 hr 9 min 35 sec) 
Heartbeat CPU  3 instructions:   82000000 cycles:  169143305 heartbeat IPC: 0.15741 cumulative IPC: 0.15809 (Simulation time: 0 hr 9 min 38 sec) 
Heartbeat CPU  1 instructions:   73000000 cycles:  171587505 heartbeat IPC: 0.12183 cumulative IPC: 0.13084 (Simulation time: 0 hr 9 min 42 sec) 
Heartbeat CPU  2 instructions:   80000000 cycles:  172461386 heartbeat IPC: 0.15497 cumulative IPC: 0.15475 (Simulation time: 0 hr 9 min 43 sec) 
Heartbeat CPU  3 instructions:   83000001 cycles:  175480051 heartbeat IPC: 0.15781 cumulative IPC: 0.15808 (Simulation time: 0 hr 9 min 47 sec) 
Heartbeat CPU  0 instructions:   69000002 cycles:  175553482 heartbeat IPC: 0.11835 cumulative IPC: 0.12439 (Simulation time: 0 hr 9 min 47 sec) 
Heartbeat CPU  2 instructions:   81000001 cycles:  178939765 heartbeat IPC: 0.15436 cumulative IPC: 0.15474 (Simulation time: 0 hr 9 min 52 sec) 
Heartbeat CPU  1 instructions:   74000000 cycles:  179841455 heartbeat IPC: 0.12115 cumulative IPC: 0.13033 (Simulation time: 0 hr 9 min 53 sec) 
Heartbeat CPU  3 instructions:   84000000 cycles:  181809151 heartbeat IPC: 0.15800 cumulative IPC: 0.15808 (Simulation time: 0 hr 9 min 56 sec) 
Heartbeat CPU  0 instructions:   70000003 cycles:  184024762 heartbeat IPC: 0.11805 cumulative IPC: 0.12406 (Simulation time: 0 hr 9 min 59 sec) 
Heartbeat CPU  2 instructions:   82000000 cycles:  185382463 heartbeat IPC: 0.15521 cumulative IPC: 0.15475 (Simulation time: 0 hr 10 min 1 sec) 
Heartbeat CPU  1 instructions:   75000000 cycles:  188025983 heartbeat IPC: 0.12218 cumulative IPC: 0.12993 (Simulation time: 0 hr 10 min 5 sec) 
Heartbeat CPU  3 instructions:   85000000 cycles:  188160295 heartbeat IPC: 0.15745 cumulative IPC: 0.15805 (Simulation time: 0 hr 10 min 5 sec) 
Heartbeat CPU  2 instructions:   83000001 cycles:  191862622 heartbeat IPC: 0.15432 cumulative IPC: 0.15474 (Simulation time: 0 hr 10 min 11 sec) 
Heartbeat CPU  0 instructions:   71000002 cycles:  192506561 heartbeat IPC: 0.11790 cumulative IPC: 0.12375 (Simulation time: 0 hr 10 min 11 sec) 
Heartbeat CPU  3 instructions:   86000000 cycles:  194518150 heartbeat IPC: 0.15729 cumulative IPC: 0.15803 (Simulation time: 0 hr 10 min 14 sec) 
Heartbeat CPU  1 instructions:   76000000 cycles:  196439995 heartbeat IPC: 0.11885 cumulative IPC: 0.12939 (Simulation time: 0 hr 10 min 17 sec) 
Heartbeat CPU  2 instructions:   84000000 cycles:  198340821 heartbeat IPC: 0.15436 cumulative IPC: 0.15472 (Simulation time: 0 hr 10 min 20 sec) 
Heartbeat CPU  3 instructions:   87000000 cycles:  200875336 heartbeat IPC: 0.15730 cumulative IPC: 0.15800 (Simulation time: 0 hr 10 min 23 sec) 
Heartbeat CPU  0 instructions:   72000000 cycles:  201170666 heartbeat IPC: 0.11542 cumulative IPC: 0.12335 (Simulation time: 0 hr 10 min 24 sec) 
Heartbeat CPU  1 instructions:   77000003 cycles:  204748226 heartbeat IPC: 0.12036 cumulative IPC: 0.12898 (Simulation time: 0 hr 10 min 29 sec) 
Heartbeat CPU  2 instructions:   85000003 cycles:  204820640 heartbeat IPC: 0.15433 cumulative IPC: 0.15471 (Simulation time: 0 hr 10 min 29 sec) 
Heartbeat CPU  3 instructions:   88000000 cycles:  207241810 heartbeat IPC: 0.15707 cumulative IPC: 0.15797 (Simulation time: 0 hr 10 min 33 sec) 
Heartbeat CPU  0 instructions:   73000003 cycles:  209654258 heartbeat IPC: 0.11787 cumulative IPC: 0.12310 (Simulation time: 0 hr 10 min 36 sec) 
Heartbeat CPU  2 instructions:   86000000 cycles:  211295857 heartbeat IPC: 0.15443 cumulative IPC: 0.15470 (Simulation time: 0 hr 10 min 38 sec) 
Heartbeat CPU  1 instructions:   78000001 cycles:  213092858 heartbeat IPC: 0.11984 cumulative IPC: 0.12858 (Simulation time: 0 hr 10 min 41 sec) 
Heartbeat CPU  3 instructions:   89000000 cycles:  213642407 heartbeat IPC: 0.15624 cumulative IPC: 0.15791 (Simulation time: 0 hr 10 min 42 sec) 
Heartbeat CPU  2 instructions:   87000001 cycles:  217735461 heartbeat IPC: 0.15529 cumulative IPC: 0.15472 (Simulation time: 0 hr 10 min 48 sec) 
Heartbeat CPU  0 instructions:   74000002 cycles:  218144712 heartbeat IPC: 0.11778 cumulative IPC: 0.12287 (Simulation time: 0 hr 10 min 48 sec) 
Heartbeat CPU  3 instructions:   90000000 cycles:  220035545 heartbeat IPC: 0.15642 cumulative IPC: 0.15786 (Simulation time: 0 hr 10 min 51 sec) 
Heartbeat CPU  1 instructions:   79000000 cycles:  221442997 heartbeat IPC: 0.11976 cumulative IPC: 0.12821 (Simulation time: 0 hr 10 min 53 sec) 
Heartbeat CPU  2 instructions:   88000000 cycles:  224200854 heartbeat IPC: 0.15467 cumulative IPC: 0.15472 (Simulation time: 0 hr 10 min 58 sec) 
Heartbeat CPU  0 instructions:   75000000 cycles:  224629719 heartbeat IPC: 0.15420 cumulative IPC: 0.12387 (Simulation time: 0 hr 10 min 58 sec) 
Heartbeat CPU  3 instructions:   91000002 cycles:  226420843 heartbeat IPC: 0.15661 cumulative IPC: 0.15782 (Simulation time: 0 hr 11 min 1 sec) 
Heartbeat CPU  0 instructions:   76000000 cycles:  229165695 heartbeat IPC: 0.22046 cumulative IPC: 0.12600 (Simulation time: 0 hr 11 min 6 sec) 
Heartbeat CPU  1 instructions:   80000000 cycles:  229969620 heartbeat IPC: 0.11728 cumulative IPC: 0.12776 (Simulation time: 0 hr 11 min 7 sec) 
Heartbeat CPU  2 instructions:   89000000 cycles:  230642998 heartbeat IPC: 0.15523 cumulative IPC: 0.15473 (Simulation time: 0 hr 11 min 8 sec) 
Heartbeat CPU  3 instructions:   92000000 cycles:  232779972 heartbeat IPC: 0.15725 cumulative IPC: 0.15780 (Simulation time: 0 hr 11 min 12 sec) 
Heartbeat CPU  0 instructions:   77000000 cycles:  236030864 heartbeat IPC: 0.14566 cumulative IPC: 0.12663 (Simulation time: 0 hr 11 min 16 sec) 
Heartbeat CPU  2 instructions:   90000003 cycles:  237086564 heartbeat IPC: 0.15519 cumulative IPC: 0.15475 (Simulation time: 0 hr 11 min 18 sec) 
Heartbeat CPU  1 instructions:   81000001 cycles:  238333795 heartbeat IPC: 0.11956 cumulative IPC: 0.12744 (Simulation time: 0 hr 11 min 20 sec) 
Heartbeat CPU  3 instructions:   93000002 cycles:  239134180 heartbeat IPC: 0.15738 cumulative IPC: 0.15779 (Simulation time: 0 hr 11 min 21 sec) 
Heartbeat CPU  2 instructions:   91000000 cycles:  243566818 heartbeat IPC: 0.15431 cumulative IPC: 0.15474 (Simulation time: 0 hr 11 min 27 sec) 
Heartbeat CPU  0 instructions:   78000002 cycles:  244340729 heartbeat IPC: 0.12034 cumulative IPC: 0.12639 (Simulation time: 0 hr 11 min 28 sec) 
Heartbeat CPU  3 instructions:   94000002 cycles:  245483349 heartbeat IPC: 0.15750 cumulative IPC: 0.15778 (Simulation time: 0 hr 11 min 30 sec) 
Heartbeat CPU  1 instructions:   82000002 cycles:  246730300 heartbeat IPC: 0.11910 cumulative IPC: 0.12712 (Simulation time: 0 hr 11 min 32 sec) 
Heartbeat CPU  2 instructions:   92000000 cycles:  250011945 heartbeat IPC: 0.15516 cumulative IPC: 0.15475 (Simulation time: 0 hr 11 min 36 sec) 
Heartbeat CPU  3 instructions:   95000000 cycles:  251813855 heartbeat IPC: 0.15796 cumulative IPC: 0.15779 (Simulation time: 0 hr 11 min 39 sec) 
Heartbeat CPU  0 instructions:   79000003 cycles:  252673303 heartbeat IPC: 0.12001 cumulative IPC: 0.12616 (Simulation time: 0 hr 11 min 40 sec) 
Heartbeat CPU  1 instructions:   83000003 cycles:  254972912 heartbeat IPC: 0.12132 cumulative IPC: 0.12692 (Simulation time: 0 hr 11 min 43 sec) 
Heartbeat CPU  2 instructions:   93000000 cycles:  256471422 heartbeat IPC: 0.15481 cumulative IPC: 0.15475 (Simulation time: 0 hr 11 min 46 sec) 
Heartbeat CPU  3 instructions:   96000000 cycles:  258149514 heartbeat IPC: 0.15784 cumulative IPC: 0.15779 (Simulation time: 0 hr 11 min 49 sec) 
Heartbeat CPU  1 instructions:   84000000 cycles:  259678730 heartbeat IPC: 0.21250 cumulative IPC: 0.12862 (Simulation time: 0 hr 11 min 51 sec) 
Heartbeat CPU  0 instructions:   80000000 cycles:  261083671 heartbeat IPC: 0.11890 cumulative IPC: 0.12591 (Simulation time: 0 hr 11 min 54 sec) 
Heartbeat CPU  2 instructions:   94000001 cycles:  262908264 heartbeat IPC: 0.15536 cumulative IPC: 0.15477 (Simulation time: 0 hr 11 min 57 sec) 
Heartbeat CPU  3 instructions:   97000001 cycles:  264510765 heartbeat IPC: 0.15720 cumulative IPC: 0.15777 (Simulation time: 0 hr 11 min 59 sec) 
Heartbeat CPU  1 instructions:   85000001 cycles:  264983396 heartbeat IPC: 0.18851 cumulative IPC: 0.12993 (Simulation time: 0 hr 12 min 0 sec) 
Heartbeat CPU  2 instructions:   95000000 cycles:  269433166 heartbeat IPC: 0.15326 cumulative IPC: 0.15473 (Simulation time: 0 hr 12 min 6 sec) 
Heartbeat CPU  0 instructions:   81000002 cycles:  269465509 heartbeat IPC: 0.11931 cumulative IPC: 0.12568 (Simulation time: 0 hr 12 min 6 sec) 
Heartbeat CPU  3 instructions:   98000003 cycles:  270874001 heartbeat IPC: 0.15715 cumulative IPC: 0.15776 (Simulation time: 0 hr 12 min 8 sec) 
Heartbeat CPU  1 instructions:   86000000 cycles:  273179204 heartbeat IPC: 0.12201 cumulative IPC: 0.12967 (Simulation time: 0 hr 12 min 11 sec) 
Heartbeat CPU  2 instructions:   96000000 cycles:  275971332 heartbeat IPC: 0.15295 cumulative IPC: 0.15468 (Simulation time: 0 hr 12 min 15 sec) 
Heartbeat CPU  3 instructions:   99000001 cycles:  277233737 heartbeat IPC: 0.15724 cumulative IPC: 0.15775 (Simulation time: 0 hr 12 min 17 sec) 
Heartbeat CPU  0 instructions:   82000002 cycles:  277785496 heartbeat IPC: 0.12019 cumulative IPC: 0.12550 (Simulation time: 0 hr 12 min 18 sec) 
Heartbeat CPU  1 instructions:   87000001 cycles:  281407153 heartbeat IPC: 0.12154 cumulative IPC: 0.12941 (Simulation time: 0 hr 12 min 23 sec) 
Heartbeat CPU  2 instructions:   97000000 cycles:  282522352 heartbeat IPC: 0.15265 cumulative IPC: 0.15463 (Simulation time: 0 hr 12 min 25 sec) 
*** Reached end of trace for Core: 3 Repeating trace: /data3/CLOUD9/traces/cloud9_phase0_core3.trace.xz
Heartbeat CPU  3 instructions:  100000000 cycles:  283592055 heartbeat IPC: 0.15727 cumulative IPC: 0.15773 (Simulation time: 0 hr 12 min 26 sec) 
Heartbeat CPU  0 instructions:   83000003 cycles:  286189506 heartbeat IPC: 0.11899 cumulative IPC: 0.12529 (Simulation time: 0 hr 12 min 30 sec) 
Heartbeat CPU  2 instructions:   98000003 cycles:  289053252 heartbeat IPC: 0.15312 cumulative IPC: 0.15459 (Simulation time: 0 hr 12 min 34 sec) 
Heartbeat CPU  1 instructions:   88000000 cycles:  289686549 heartbeat IPC: 0.12078 cumulative IPC: 0.12915 (Simulation time: 0 hr 12 min 35 sec) 
Heartbeat CPU  3 instructions:  101000003 cycles:  289984232 heartbeat IPC: 0.15644 cumulative IPC: 0.15770 (Simulation time: 0 hr 12 min 35 sec) 
Heartbeat CPU  0 instructions:   84000000 cycles:  294637733 heartbeat IPC: 0.11837 cumulative IPC: 0.12508 (Simulation time: 0 hr 12 min 42 sec) 
Heartbeat CPU  2 instructions:   99000001 cycles:  295557836 heartbeat IPC: 0.15374 cumulative IPC: 0.15457 (Simulation time: 0 hr 12 min 43 sec) 
Heartbeat CPU  3 instructions:  102000001 cycles:  296371235 heartbeat IPC: 0.15657 cumulative IPC: 0.15768 (Simulation time: 0 hr 12 min 44 sec) 
Heartbeat CPU  1 instructions:   89000000 cycles:  298011758 heartbeat IPC: 0.12012 cumulative IPC: 0.12887 (Simulation time: 0 hr 12 min 47 sec) 
*** Reached end of trace for Core: 2 Repeating trace: /data3/CLOUD9/traces/cloud9_phase0_core2.trace.xz
Heartbeat CPU  2 instructions:  100000000 cycles:  302067799 heartbeat IPC: 0.15361 cumulative IPC: 0.15455 (Simulation time: 0 hr 12 min 52 sec) 
Heartbeat CPU  3 instructions:  103000000 cycles:  302805561 heartbeat IPC: 0.15542 cumulative IPC: 0.15762 (Simulation time: 0 hr 12 min 53 sec) 
Heartbeat CPU  0 instructions:   85000002 cycles:  303085669 heartbeat IPC: 0.11837 cumulative IPC: 0.12488 (Simulation time: 0 hr 12 min 54 sec) 
Heartbeat CPU  1 instructions:   90000001 cycles:  306392167 heartbeat IPC: 0.11933 cumulative IPC: 0.12859 (Simulation time: 0 hr 12 min 58 sec) 
Heartbeat CPU  2 instructions:  101000001 cycles:  308940797 heartbeat IPC: 0.14550 cumulative IPC: 0.15433 (Simulation time: 0 hr 13 min 2 sec) 
Heartbeat CPU  3 instructions:  104000000 cycles:  309314952 heartbeat IPC: 0.15362 cumulative IPC: 0.15753 (Simulation time: 0 hr 13 min 2 sec) 
Heartbeat CPU  0 instructions:   86000001 cycles:  311379997 heartbeat IPC: 0.12056 cumulative IPC: 0.12475 (Simulation time: 0 hr 13 min 5 sec) 
Heartbeat CPU  1 instructions:   91000002 cycles:  314706094 heartbeat IPC: 0.12028 cumulative IPC: 0.12835 (Simulation time: 0 hr 13 min 10 sec) 
Heartbeat CPU  2 instructions:  102000002 cycles:  315774067 heartbeat IPC: 0.14634 cumulative IPC: 0.15414 (Simulation time: 0 hr 13 min 11 sec) 
Heartbeat CPU  3 instructions:  105000000 cycles:  315856097 heartbeat IPC: 0.15288 cumulative IPC: 0.15743 (Simulation time: 0 hr 13 min 12 sec) 
Heartbeat CPU  0 instructions:   87000000 cycles:  320206723 heartbeat IPC: 0.11329 cumulative IPC: 0.12441 (Simulation time: 0 hr 13 min 18 sec) 
Heartbeat CPU  3 instructions:  106000002 cycles:  322357545 heartbeat IPC: 0.15381 cumulative IPC: 0.15735 (Simulation time: 0 hr 13 min 21 sec) 
Heartbeat CPU  2 instructions:  103000003 cycles:  322376302 heartbeat IPC: 0.15146 cumulative IPC: 0.15409 (Simulation time: 0 hr 13 min 21 sec) 
Heartbeat CPU  1 instructions:   92000000 cycles:  323012578 heartbeat IPC: 0.12039 cumulative IPC: 0.12813 (Simulation time: 0 hr 13 min 22 sec) 
Heartbeat CPU  0 instructions:   88000000 cycles:  328713752 heartbeat IPC: 0.11755 cumulative IPC: 0.12422 (Simulation time: 0 hr 13 min 30 sec) 
Heartbeat CPU  3 instructions:  107000000 cycles:  328860092 heartbeat IPC: 0.15379 cumulative IPC: 0.15728 (Simulation time: 0 hr 13 min 30 sec) 
Heartbeat CPU  2 instructions:  104000000 cycles:  329011559 heartbeat IPC: 0.15071 cumulative IPC: 0.15401 (Simulation time: 0 hr 13 min 30 sec) 
Heartbeat CPU  1 instructions:   93000001 cycles:  331370160 heartbeat IPC: 0.11965 cumulative IPC: 0.12790 (Simulation time: 0 hr 13 min 33 sec) 
Heartbeat CPU  3 instructions:  108000000 cycles:  335390938 heartbeat IPC: 0.15312 cumulative IPC: 0.15719 (Simulation time: 0 hr 13 min 39 sec) 
Heartbeat CPU  2 instructions:  105000000 cycles:  335633261 heartbeat IPC: 0.15102 cumulative IPC: 0.15395 (Simulation time: 0 hr 13 min 39 sec) 
Heartbeat CPU  0 instructions:   89000001 cycles:  337247625 heartbeat IPC: 0.11718 cumulative IPC: 0.12403 (Simulation time: 0 hr 13 min 41 sec) 
Heartbeat CPU  1 instructions:   94000000 cycles:  339714703 heartbeat IPC: 0.11984 cumulative IPC: 0.12769 (Simulation time: 0 hr 13 min 45 sec) 
Heartbeat CPU  3 instructions:  109000000 cycles:  341907498 heartbeat IPC: 0.15346 cumulative IPC: 0.15711 (Simulation time: 0 hr 13 min 49 sec) 
Heartbeat CPU  2 instructions:  106000003 cycles:  342257796 heartbeat IPC: 0.15095 cumulative IPC: 0.15389 (Simulation time: 0 hr 13 min 49 sec) 
Heartbeat CPU  0 instructions:   90000000 cycles:  342675316 heartbeat IPC: 0.18424 cumulative IPC: 0.12505 (Simulation time: 0 hr 13 min 50 sec) 
Heartbeat CPU  0 instructions:   91000003 cycles:  347559726 heartbeat IPC: 0.20473 cumulative IPC: 0.12625 (Simulation time: 0 hr 13 min 58 sec) 
Heartbeat CPU  1 instructions:   95000001 cycles:  348226569 heartbeat IPC: 0.11748 cumulative IPC: 0.12742 (Simulation time: 0 hr 13 min 59 sec) 
Heartbeat CPU  3 instructions:  110000001 cycles:  348426906 heartbeat IPC: 0.15339 cumulative IPC: 0.15704 (Simulation time: 0 hr 13 min 59 sec) 
Heartbeat CPU  2 instructions:  107000001 cycles:  348866747 heartbeat IPC: 0.15131 cumulative IPC: 0.15383 (Simulation time: 0 hr 14 min 0 sec) 
Heartbeat CPU  3 instructions:  111000000 cycles:  354969468 heartbeat IPC: 0.15285 cumulative IPC: 0.15696 (Simulation time: 0 hr 14 min 8 sec) 
Heartbeat CPU  0 instructions:   92000000 cycles:  355212767 heartbeat IPC: 0.13067 cumulative IPC: 0.12635 (Simulation time: 0 hr 14 min 9 sec) 
Heartbeat CPU  2 instructions:  108000000 cycles:  355468680 heartbeat IPC: 0.15147 cumulative IPC: 0.15379 (Simulation time: 0 hr 14 min 9 sec) 
Heartbeat CPU  1 instructions:   96000000 cycles:  356602111 heartbeat IPC: 0.11940 cumulative IPC: 0.12722 (Simulation time: 0 hr 14 min 10 sec) 
Heartbeat CPU  3 instructions:  112000000 cycles:  361509260 heartbeat IPC: 0.15291 cumulative IPC: 0.15688 (Simulation time: 0 hr 14 min 17 sec) 
Heartbeat CPU  2 instructions:  109000003 cycles:  362089875 heartbeat IPC: 0.15103 cumulative IPC: 0.15373 (Simulation time: 0 hr 14 min 18 sec) 
Heartbeat CPU  0 instructions:   93000000 cycles:  363550116 heartbeat IPC: 0.11994 cumulative IPC: 0.12620 (Simulation time: 0 hr 14 min 20 sec) 
Heartbeat CPU  1 instructions:   97000000 cycles:  365000406 heartbeat IPC: 0.11907 cumulative IPC: 0.12702 (Simulation time: 0 hr 14 min 22 sec) 
Heartbeat CPU  3 instructions:  113000000 cycles:  368059204 heartbeat IPC: 0.15267 cumulative IPC: 0.15680 (Simulation time: 0 hr 14 min 26 sec) 
Heartbeat CPU  2 instructions:  110000001 cycles:  368722922 heartbeat IPC: 0.15076 cumulative IPC: 0.15368 (Simulation time: 0 hr 14 min 27 sec) 
Heartbeat CPU  0 instructions:   94000003 cycles:  371906235 heartbeat IPC: 0.11967 cumulative IPC: 0.12604 (Simulation time: 0 hr 14 min 32 sec) 
Heartbeat CPU  1 instructions:   98000000 cycles:  372476378 heartbeat IPC: 0.13376 cumulative IPC: 0.12717 (Simulation time: 0 hr 14 min 33 sec) 
Heartbeat CPU  3 instructions:  114000003 cycles:  374618260 heartbeat IPC: 0.15246 cumulative IPC: 0.15672 (Simulation time: 0 hr 14 min 36 sec) 
Heartbeat CPU  2 instructions:  111000001 cycles:  375334208 heartbeat IPC: 0.15126 cumulative IPC: 0.15363 (Simulation time: 0 hr 14 min 37 sec) 
Heartbeat CPU  1 instructions:   99000001 cycles:  377082553 heartbeat IPC: 0.21710 cumulative IPC: 0.12834 (Simulation time: 0 hr 14 min 40 sec) 
Heartbeat CPU  0 instructions:   95000001 cycles:  380296963 heartbeat IPC: 0.11918 cumulative IPC: 0.12588 (Simulation time: 0 hr 14 min 45 sec) 
Heartbeat CPU  3 instructions:  115000001 cycles:  381173102 heartbeat IPC: 0.15256 cumulative IPC: 0.15664 (Simulation time: 0 hr 14 min 46 sec) 
Heartbeat CPU  2 instructions:  112000000 cycles:  381947720 heartbeat IPC: 0.15121 cumulative IPC: 0.15359 (Simulation time: 0 hr 14 min 48 sec) 
*** Reached end of trace for Core: 1 Repeating trace: /data3/CLOUD9/traces/cloud9_phase0_core1.trace.xz
Heartbeat CPU  1 instructions:  100000000 cycles:  384050781 heartbeat IPC: 0.14351 cumulative IPC: 0.12863 (Simulation time: 0 hr 14 min 50 sec) 
Heartbeat CPU  3 instructions:  116000000 cycles:  387479752 heartbeat IPC: 0.15856 cumulative IPC: 0.15667 (Simulation time: 0 hr 14 min 55 sec) 
Heartbeat CPU  2 instructions:  113000000 cycles:  388552031 heartbeat IPC: 0.15142 cumulative IPC: 0.15355 (Simulation time: 0 hr 14 min 57 sec) 
Heartbeat CPU  0 instructions:   96000000 cycles:  388624899 heartbeat IPC: 0.12008 cumulative IPC: 0.12575 (Simulation time: 0 hr 14 min 57 sec) 
Heartbeat CPU  1 instructions:  101000002 cycles:  392306925 heartbeat IPC: 0.12112 cumulative IPC: 0.12846 (Simulation time: 0 hr 15 min 2 sec) 
Heartbeat CPU  3 instructions:  117000003 cycles:  393720226 heartbeat IPC: 0.16024 cumulative IPC: 0.15673 (Simulation time: 0 hr 15 min 4 sec) 
Heartbeat CPU  2 instructions:  114000001 cycles:  395171726 heartbeat IPC: 0.15106 cumulative IPC: 0.15350 (Simulation time: 0 hr 15 min 6 sec) 
Heartbeat CPU  0 instructions:   97000001 cycles:  397043695 heartbeat IPC: 0.11878 cumulative IPC: 0.12559 (Simulation time: 0 hr 15 min 9 sec) 
Heartbeat CPU  3 instructions:  118000001 cycles:  399974363 heartbeat IPC: 0.15989 cumulative IPC: 0.15679 (Simulation time: 0 hr 15 min 13 sec) 
Heartbeat CPU  1 instructions:  102000002 cycles:  400749498 heartbeat IPC: 0.11845 cumulative IPC: 0.12824 (Simulation time: 0 hr 15 min 14 sec) 
Heartbeat CPU  2 instructions:  115000003 cycles:  401790089 heartbeat IPC: 0.15110 cumulative IPC: 0.15346 (Simulation time: 0 hr 15 min 16 sec) 
Heartbeat CPU  0 instructions:   98000003 cycles:  405454109 heartbeat IPC: 0.11890 cumulative IPC: 0.12544 (Simulation time: 0 hr 15 min 21 sec) 
Heartbeat CPU  3 instructions:  119000000 cycles:  406222277 heartbeat IPC: 0.16005 cumulative IPC: 0.15684 (Simulation time: 0 hr 15 min 22 sec) 
Heartbeat CPU  2 instructions:  116000000 cycles:  408402586 heartbeat IPC: 0.15123 cumulative IPC: 0.15342 (Simulation time: 0 hr 15 min 25 sec) 
Heartbeat CPU  1 instructions:  103000003 cycles:  409029440 heartbeat IPC: 0.12077 cumulative IPC: 0.12808 (Simulation time: 0 hr 15 min 26 sec) 
Heartbeat CPU  3 instructions:  120000000 cycles:  412472166 heartbeat IPC: 0.16000 cumulative IPC: 0.15689 (Simulation time: 0 hr 15 min 31 sec) 
Heartbeat CPU  0 instructions:   99000003 cycles:  413883157 heartbeat IPC: 0.11864 cumulative IPC: 0.12530 (Simulation time: 0 hr 15 min 33 sec) 
Heartbeat CPU  2 instructions:  117000000 cycles:  415000458 heartbeat IPC: 0.15156 cumulative IPC: 0.15339 (Simulation time: 0 hr 15 min 34 sec) 
Heartbeat CPU  1 instructions:  104000000 cycles:  417356274 heartbeat IPC: 0.12009 cumulative IPC: 0.12791 (Simulation time: 0 hr 15 min 38 sec) 
Heartbeat CPU  3 instructions:  121000000 cycles:  418695607 heartbeat IPC: 0.16068 cumulative IPC: 0.15695 (Simulation time: 0 hr 15 min 39 sec) 
Heartbeat CPU  2 instructions:  118000002 cycles:  421625834 heartbeat IPC: 0.15094 cumulative IPC: 0.15335 (Simulation time: 0 hr 15 min 44 sec) 
*** Reached end of trace for Core: 0 Repeating trace: /data3/CLOUD9/traces/cloud9_phase0_core0.trace.xz
Heartbeat CPU  0 instructions:  100000000 cycles:  422338129 heartbeat IPC: 0.11827 cumulative IPC: 0.12515 (Simulation time: 0 hr 15 min 45 sec) 
Heartbeat CPU  3 instructions:  122000003 cycles:  424945422 heartbeat IPC: 0.16001 cumulative IPC: 0.15700 (Simulation time: 0 hr 15 min 48 sec) 
Heartbeat CPU  1 instructions:  105000003 cycles:  425695028 heartbeat IPC: 0.11992 cumulative IPC: 0.12774 (Simulation time: 0 hr 15 min 49 sec) 
Heartbeat CPU  2 instructions:  119000001 cycles:  428217594 heartbeat IPC: 0.15170 cumulative IPC: 0.15332 (Simulation time: 0 hr 15 min 53 sec) 
Heartbeat CPU  0 instructions:  101000001 cycles:  430805499 heartbeat IPC: 0.11810 cumulative IPC: 0.12500 (Simulation time: 0 hr 15 min 57 sec) 
Heartbeat CPU  3 instructions:  123000000 cycles:  431186894 heartbeat IPC: 0.16022 cumulative IPC: 0.15705 (Simulation time: 0 hr 15 min 57 sec) 
Heartbeat CPU  1 instructions:  106000001 cycles:  434243949 heartbeat IPC: 0.11697 cumulative IPC: 0.12752 (Simulation time: 0 hr 16 min 2 sec) 
Heartbeat CPU  2 instructions:  120000000 cycles:  434859425 heartbeat IPC: 0.15056 cumulative IPC: 0.15328 (Simulation time: 0 hr 16 min 3 sec) 
Heartbeat CPU  0 instructions:  102000000 cycles:  435688607 heartbeat IPC: 0.20479 cumulative IPC: 0.12595 (Simulation time: 0 hr 16 min 5 sec) 
Heartbeat CPU  3 instructions:  124000000 cycles:  437431536 heartbeat IPC: 0.16014 cumulative IPC: 0.15709 (Simulation time: 0 hr 16 min 8 sec) 
Heartbeat CPU  0 instructions:  103000002 cycles:  440660108 heartbeat IPC: 0.20115 cumulative IPC: 0.12684 (Simulation time: 0 hr 16 min 13 sec) 
Heartbeat CPU  2 instructions:  121000001 cycles:  441459122 heartbeat IPC: 0.15152 cumulative IPC: 0.15325 (Simulation time: 0 hr 16 min 14 sec) 
Heartbeat CPU  1 instructions:  107000001 cycles:  442591963 heartbeat IPC: 0.11979 cumulative IPC: 0.12737 (Simulation time: 0 hr 16 min 15 sec) 
Heartbeat CPU  3 instructions:  125000001 cycles:  443697983 heartbeat IPC: 0.15958 cumulative IPC: 0.15713 (Simulation time: 0 hr 16 min 17 sec) 
Heartbeat CPU  2 instructions:  122000002 cycles:  448074694 heartbeat IPC: 0.15116 cumulative IPC: 0.15322 (Simulation time: 0 hr 16 min 23 sec) 
Heartbeat CPU  0 instructions:  104000000 cycles:  448622427 heartbeat IPC: 0.12559 cumulative IPC: 0.12682 (Simulation time: 0 hr 16 min 24 sec) 
Heartbeat CPU  3 instructions:  126000003 cycles:  449949839 heartbeat IPC: 0.15995 cumulative IPC: 0.15717 (Simulation time: 0 hr 16 min 26 sec) 
Heartbeat CPU  1 instructions:  108000000 cycles:  450964749 heartbeat IPC: 0.11943 cumulative IPC: 0.12721 (Simulation time: 0 hr 16 min 27 sec) 
Heartbeat CPU  2 instructions:  123000000 cycles:  454673191 heartbeat IPC: 0.15155 cumulative IPC: 0.15319 (Simulation time: 0 hr 16 min 32 sec) 
Heartbeat CPU  3 instructions:  127000000 cycles:  456171936 heartbeat IPC: 0.16072 cumulative IPC: 0.15722 (Simulation time: 0 hr 16 min 34 sec) 
Heartbeat CPU  0 instructions:  105000000 cycles:  456958408 heartbeat IPC: 0.11996 cumulative IPC: 0.12668 (Simulation time: 0 hr 16 min 35 sec) 
Heartbeat CPU  1 instructions:  109000002 cycles:  459256202 heartbeat IPC: 0.12061 cumulative IPC: 0.12709 (Simulation time: 0 hr 16 min 39 sec) 
Heartbeat CPU  2 instructions:  124000000 cycles:  461300226 heartbeat IPC: 0.15090 cumulative IPC: 0.15316 (Simulation time: 0 hr 16 min 42 sec) 
Heartbeat CPU  3 instructions:  128000000 cycles:  462404978 heartbeat IPC: 0.16044 cumulative IPC: 0.15727 (Simulation time: 0 hr 16 min 44 sec) 
Heartbeat CPU  1 instructions:  110000002 cycles:  463954699 heartbeat IPC: 0.21283 cumulative IPC: 0.12800 (Simulation time: 0 hr 16 min 46 sec) 
Heartbeat CPU  0 instructions:  106000001 cycles:  465269016 heartbeat IPC: 0.12033 cumulative IPC: 0.12657 (Simulation time: 0 hr 16 min 48 sec) 
Heartbeat CPU  2 instructions:  125000001 cycles:  467951832 heartbeat IPC: 0.15034 cumulative IPC: 0.15312 (Simulation time: 0 hr 16 min 53 sec) 
Heartbeat CPU  3 instructions:  129000001 cycles:  468644045 heartbeat IPC: 0.16028 cumulative IPC: 0.15731 (Simulation time: 0 hr 16 min 54 sec) 
Heartbeat CPU  1 instructions:  111000001 cycles:  469316021 heartbeat IPC: 0.18652 cumulative IPC: 0.12870 (Simulation time: 0 hr 16 min 55 sec) 
Heartbeat CPU  0 instructions:  107000002 cycles:  473675951 heartbeat IPC: 0.11895 cumulative IPC: 0.12642 (Simulation time: 0 hr 17 min 1 sec) 
Heartbeat CPU  2 instructions:  126000001 cycles:  474585786 heartbeat IPC: 0.15074 cumulative IPC: 0.15308 (Simulation time: 0 hr 17 min 2 sec) 
Heartbeat CPU  3 instructions:  130000001 cycles:  474882455 heartbeat IPC: 0.16030 cumulative IPC: 0.15735 (Simulation time: 0 hr 17 min 2 sec) 
Heartbeat CPU  1 instructions:  112000000 cycles:  477499308 heartbeat IPC: 0.12220 cumulative IPC: 0.12858 (Simulation time: 0 hr 17 min 6 sec) 
Heartbeat CPU  3 instructions:  131000002 cycles:  481153470 heartbeat IPC: 0.15946 cumulative IPC: 0.15738 (Simulation time: 0 hr 17 min 11 sec) 
Heartbeat CPU  2 instructions:  127000001 cycles:  481241911 heartbeat IPC: 0.15024 cumulative IPC: 0.15304 (Simulation time: 0 hr 17 min 11 sec) 
Heartbeat CPU  0 instructions:  108000000 cycles:  482047896 heartbeat IPC: 0.11945 cumulative IPC: 0.12630 (Simulation time: 0 hr 17 min 12 sec) 
Heartbeat CPU  1 instructions:  113000000 cycles:  485711339 heartbeat IPC: 0.12177 cumulative IPC: 0.12846 (Simulation time: 0 hr 17 min 18 sec) 
Heartbeat CPU  3 instructions:  132000000 cycles:  487398588 heartbeat IPC: 0.16012 cumulative IPC: 0.15742 (Simulation time: 0 hr 17 min 20 sec) 
Heartbeat CPU  2 instructions:  128000000 cycles:  487884100 heartbeat IPC: 0.15055 cumulative IPC: 0.15301 (Simulation time: 0 hr 17 min 21 sec) 
Heartbeat CPU  0 instructions:  109000003 cycles:  490405622 heartbeat IPC: 0.11965 cumulative IPC: 0.12618 (Simulation time: 0 hr 17 min 24 sec) 
Heartbeat CPU  3 instructions:  133000000 cycles:  493649680 heartbeat IPC: 0.15997 cumulative IPC: 0.15745 (Simulation time: 0 hr 17 min 29 sec) 
Heartbeat CPU  1 instructions:  114000000 cycles:  493922528 heartbeat IPC: 0.12179 cumulative IPC: 0.12835 (Simulation time: 0 hr 17 min 29 sec) 
Heartbeat CPU  2 instructions:  129000001 cycles:  494627098 heartbeat IPC: 0.14830 cumulative IPC: 0.15294 (Simulation time: 0 hr 17 min 30 sec) 
Heartbeat CPU  0 instructions:  110000002 cycles:  498831345 heartbeat IPC: 0.11868 cumulative IPC: 0.12604 (Simulation time: 0 hr 17 min 36 sec) 
Heartbeat CPU  3 instructions:  134000003 cycles:  499895235 heartbeat IPC: 0.16011 cumulative IPC: 0.15749 (Simulation time: 0 hr 17 min 37 sec) 
Heartbeat CPU  2 instructions:  130000002 cycles:  501386123 heartbeat IPC: 0.14795 cumulative IPC: 0.15287 (Simulation time: 0 hr 17 min 40 sec) 
Heartbeat CPU  1 instructions:  115000003 cycles:  502165107 heartbeat IPC: 0.12132 cumulative IPC: 0.12823 (Simulation time: 0 hr 17 min 41 sec) 
Heartbeat CPU  3 instructions:  135000003 cycles:  506146741 heartbeat IPC: 0.15996 cumulative IPC: 0.15752 (Simulation time: 0 hr 17 min 46 sec) 
Heartbeat CPU  0 instructions:  111000001 cycles:  507310845 heartbeat IPC: 0.11793 cumulative IPC: 0.12590 (Simulation time: 0 hr 17 min 48 sec) 
Heartbeat CPU  2 instructions:  131000002 cycles:  508128220 heartbeat IPC: 0.14832 cumulative IPC: 0.15280 (Simulation time: 0 hr 17 min 49 sec) 
Heartbeat CPU  1 instructions:  116000000 cycles:  510466644 heartbeat IPC: 0.12046 cumulative IPC: 0.12809 (Simulation time: 0 hr 17 min 52 sec) 
Heartbeat CPU  3 instructions:  136000000 cycles:  512401491 heartbeat IPC: 0.15988 cumulative IPC: 0.15755 (Simulation time: 0 hr 17 min 55 sec) 
Heartbeat CPU  2 instructions:  132000000 cycles:  514871086 heartbeat IPC: 0.14830 cumulative IPC: 0.15274 (Simulation time: 0 hr 17 min 58 sec) 
Heartbeat CPU  0 instructions:  112000000 cycles:  515736578 heartbeat IPC: 0.11868 cumulative IPC: 0.12578 (Simulation time: 0 hr 18 min 0 sec) 
Heartbeat CPU  3 instructions:  137000001 cycles:  518677974 heartbeat IPC: 0.15933 cumulative IPC: 0.15757 (Simulation time: 0 hr 18 min 4 sec) 
Heartbeat CPU  1 instructions:  117000002 cycles:  518785414 heartbeat IPC: 0.12021 cumulative IPC: 0.12796 (Simulation time: 0 hr 18 min 4 sec) 
Heartbeat CPU  2 instructions:  133000000 cycles:  521600399 heartbeat IPC: 0.14860 cumulative IPC: 0.15269 (Simulation time: 0 hr 18 min 8 sec) 
Heartbeat CPU  0 instructions:  113000002 cycles:  524375252 heartbeat IPC: 0.11576 cumulative IPC: 0.12561 (Simulation time: 0 hr 18 min 12 sec) 
Heartbeat CPU  3 instructions:  138000002 cycles:  524950927 heartbeat IPC: 0.15941 cumulative IPC: 0.15759 (Simulation time: 0 hr 18 min 12 sec) 
Heartbeat CPU  1 instructions:  118000003 cycles:  527076830 heartbeat IPC: 0.12061 cumulative IPC: 0.12784 (Simulation time: 0 hr 18 min 15 sec) 
Heartbeat CPU  2 instructions:  134000003 cycles:  528351936 heartbeat IPC: 0.14811 cumulative IPC: 0.15263 (Simulation time: 0 hr 18 min 17 sec) 
Heartbeat CPU  3 instructions:  139000001 cycles:  531214328 heartbeat IPC: 0.15966 cumulative IPC: 0.15762 (Simulation time: 0 hr 18 min 21 sec) 
Heartbeat CPU  0 instructions:  114000000 cycles:  532821816 heartbeat IPC: 0.11839 cumulative IPC: 0.12549 (Simulation time: 0 hr 18 min 23 sec) 
Heartbeat CPU  2 instructions:  135000000 cycles:  535101672 heartbeat IPC: 0.14815 cumulative IPC: 0.15257 (Simulation time: 0 hr 18 min 27 sec) 
Heartbeat CPU  1 instructions:  119000002 cycles:  535411427 heartbeat IPC: 0.11998 cumulative IPC: 0.12771 (Simulation time: 0 hr 18 min 27 sec) 
Heartbeat CPU  3 instructions:  140000000 cycles:  537500603 heartbeat IPC: 0.15908 cumulative IPC: 0.15764 (Simulation time: 0 hr 18 min 30 sec) 
Heartbeat CPU  0 instructions:  115000002 cycles:  541338419 heartbeat IPC: 0.11742 cumulative IPC: 0.12535 (Simulation time: 0 hr 18 min 35 sec) 
Heartbeat CPU  2 instructions:  136000000 cycles:  541830889 heartbeat IPC: 0.14861 cumulative IPC: 0.15252 (Simulation time: 0 hr 18 min 36 sec) 
Heartbeat CPU  3 instructions:  141000000 cycles:  543778170 heartbeat IPC: 0.15930 cumulative IPC: 0.15766 (Simulation time: 0 hr 18 min 39 sec) 
Heartbeat CPU  1 instructions:  120000000 cycles:  543787051 heartbeat IPC: 0.11939 cumulative IPC: 0.12758 (Simulation time: 0 hr 18 min 39 sec) 
Heartbeat CPU  2 instructions:  137000002 cycles:  548585004 heartbeat IPC: 0.14806 cumulative IPC: 0.15246 (Simulation time: 0 hr 18 min 46 sec) 
Heartbeat CPU  0 instructions:  116000000 cycles:  548981104 heartbeat IPC: 0.13084 cumulative IPC: 0.12543 (Simulation time: 0 hr 18 min 46 sec) 
Heartbeat CPU  3 instructions:  142000001 cycles:  550022124 heartbeat IPC: 0.16016 cumulative IPC: 0.15769 (Simulation time: 0 hr 18 min 48 sec) 
Heartbeat CPU  1 instructions:  121000000 cycles:  552341264 heartbeat IPC: 0.11690 cumulative IPC: 0.12741 (Simulation time: 0 hr 18 min 52 sec) 
Heartbeat CPU  0 instructions:  117000003 cycles:  553542271 heartbeat IPC: 0.21924 cumulative IPC: 0.12624 (Simulation time: 0 hr 18 min 54 sec) 
Heartbeat CPU  2 instructions:  138000000 cycles:  555294214 heartbeat IPC: 0.14905 cumulative IPC: 0.15242 (Simulation time: 0 hr 18 min 57 sec) 
Heartbeat CPU  3 instructions:  143000000 cycles:  556264644 heartbeat IPC: 0.16019 cumulative IPC: 0.15772 (Simulation time: 0 hr 18 min 58 sec) 
Heartbeat CPU  0 instructions:  118000000 cycles:  559472198 heartbeat IPC: 0.16864 cumulative IPC: 0.12671 (Simulation time: 0 hr 19 min 2 sec) 
Heartbeat CPU  1 instructions:  122000000 cycles:  560700895 heartbeat IPC: 0.11962 cumulative IPC: 0.12729 (Simulation time: 0 hr 19 min 4 sec) 
Heartbeat CPU  2 instructions:  139000001 cycles:  562033603 heartbeat IPC: 0.14838 cumulative IPC: 0.15237 (Simulation time: 0 hr 19 min 6 sec) 
[...]
Core_0_LLC_pq_full 0

Core_0_LLC_acc_epochs 1185522
Core_0_LLC_acc_level_0 1097727
Core_0_LLC_acc_level_1 30105
Core_0_LLC_acc_level_2 20832
Core_0_LLC_acc_level_3 4835
Core_0_LLC_acc_level_4 1833
Core_0_LLC_acc_level_5 15166
Core_0_LLC_acc_level_6 1463
Core_0_LLC_acc_level_7 1963
Core_0_LLC_acc_level_8 882
Core_0_LLC_acc_level_9 10716

Core_0_major_page_fault 0
Core_0_minor_page_fault 1810

Core_1_instructions 150000002
Core_1_cycles 1177021768
Core_1_IPC 0.12744

Core_1_branch_prediction_accuracy 99.23573
Core_1_branch_MPKI 1.71170
Core_1_average_ROB_occupancy_at_mispredict 157.40934

Core_1_L1D_total_access 24708867
Core_1_L1D_total_hit 23472186
Core_1_L1D_total_miss 1236681
Core_1_L1D_loads 14551221
Core_1_L1D_load_hit 13373680
Core_1_L1D_load_miss 1177541
Core_1_L1D_RFOs 10157646
Core_1_L1D_RFO_hit 10098506
Core_1_L1D_RFO_miss 59140
Core_1_L1D_prefetches 0
Core_1_L1D_prefetch_hit 0
Core_1_L1D_prefetch_miss 0
Core_1_L1D_writebacks 0
Core_1_L1D_writeback_hit 0
Core_1_L1D_writeback_miss 0
Core_1_L1D_prefetch_requested 0
Core_1_L1D_prefetch_dropped 0
Core_1_L1D_prefetch_issued 0
Core_1_L1D_prefetch_filled 0
Core_1_L1D_prefetch_useful 0
Core_1_L1D_prefetch_useless 0
Core_1_L1D_prefetch_late 0
Core_1_L1D_average_miss_latency 105.12403

Core_1_L1D_rq_access 22015029
Core_1_L1D_rq_forward 0
Core_1_L1D_rq_merged 7253796
Core_1_L1D_rq_to_cache 14761210
Core_1_L1D_rq_full 0

Core_1_L1D_wq_access 11359832
Core_1_L1D_wq_forward 23
Core_1_L1D_wq_merged 851098
Core_1_L1D_wq_to_cache 10508734
Core_1_L1D_wq_full 9246

Core_1_L1D_pq_access 0
Core_1_L1D_pq_forward 0
Core_1_L1D_pq_merged 0
Core_1_L1D_pq_to_cache 0
Core_1_L1D_pq_full 0

Core_1_L1D_acc_epochs 163363
Core_1_L1D_acc_level_0 163363
Core_1_L1D_acc_level_1 0
Core_1_L1D_acc_level_2 0
Core_1_L1D_acc_level_3 0
Core_1_L1D_acc_level_4 0
Core_1_L1D_acc_level_5 0
Core_1_L1D_acc_level_6 0
Core_1_L1D_acc_level_7 0
Core_1_L1D_acc_level_8 0
Core_1_L1D_acc_level_9 0

Core_1_L1I_total_access 40201234
Core_1_L1I_total_hit 40188465
Core_1_L1I_total_miss 12769
Core_1_L1I_loads 40201234
Core_1_L1I_load_hit 40188465
Core_1_L1I_load_miss 12769
Core_1_L1I_RFOs 0
Core_1_L1I_RFO_hit 0
Core_1_L1I_RFO_miss 0
Core_1_L1I_prefetches 0
Core_1_L1I_prefetch_hit 0
Core_1_L1I_prefetch_miss 0
Core_1_L1I_writebacks 0
Core_1_L1I_writeback_hit 0
Core_1_L1I_writeback_miss 0
Core_1_L1I_prefetch_requested 0
Core_1_L1I_prefetch_dropped 0
Core_1_L1I_prefetch_issued 0
Core_1_L1I_prefetch_filled 0
Core_1_L1I_prefetch_useful 0
Core_1_L1I_prefetch_useless 0
Core_1_L1I_prefetch_late 0
Core_1_L1I_average_miss_latency 163.29047

Core_1_L1I_rq_access 151694735
Core_1_L1I_rq_forward 0
Core_1_L1I_rq_merged 111017510
Core_1_L1I_rq_to_cache 40677225
Core_1_L1I_rq_full 0

Core_1_L1I_wq_access 0
Core_1_L1I_wq_forward 0
Core_1_L1I_wq_merged 0
Core_1_L1I_wq_to_cache 0
Core_1_L1I_wq_full 0

Core_1_L1I_pq_access 0
Core_1_L1I_pq_forward 0
Core_1_L1I_pq_merged 0
Core_1_L1I_pq_to_cache 0
Core_1_L1I_pq_full 0

Core_1_L1I_acc_epochs 163363
Core_1_L1I_acc_level_0 163363
Core_1_L1I_acc_level_1 0
Core_1_L1I_acc_level_2 0
Core_1_L1I_acc_level_3 0
Core_1_L1I_acc_level_4 0
Core_1_L1I_acc_level_5 0
Core_1_L1I_acc_level_6 0
Core_1_L1I_acc_level_7 0
Core_1_L1I_acc_level_8 0
Core_1_L1I_acc_level_9 0

Core_1_L2C_total_access 3106701
Core_1_L2C_total_hit 2059796
Core_1_L2C_total_miss 1046905
Core_1_L2C_loads 1190306
Core_1_L2C_load_hit 723913
Core_1_L2C_load_miss 466393
Core_1_L2C_RFOs 59137
Core_1_L2C_RFO_hit 14863
Core_1_L2C_RFO_miss 44274
Core_1_L2C_prefetches 1112223
Core_1_L2C_prefetch_hit 581114
Core_1_L2C_prefetch_miss 531109
Core_1_L2C_writebacks 745035
Core_1_L2C_writeback_hit 739906
Core_1_L2C_writeback_miss 5129
Core_1_L2C_prefetch_requested 3367891
Core_1_L2C_prefetch_dropped 0
Core_1_L2C_prefetch_issued 3367891
Core_1_L2C_prefetch_filled 720021
Core_1_L2C_prefetch_useful 570200
Core_1_L2C_prefetch_useless 149560
Core_1_L2C_prefetch_late 708
Core_1_L2C_average_miss_latency 146.47986

Core_1_L2C_rq_access 1260151
Core_1_L2C_rq_forward 0
Core_1_L2C_rq_merged 0
Core_1_L2C_rq_to_cache 1260144
Core_1_L2C_rq_full 0

Core_1_L2C_wq_access 749376
Core_1_L2C_wq_forward 7
Core_1_L2C_wq_merged 0
Core_1_L2C_wq_to_cache 749376
Core_1_L2C_wq_full 0

Core_1_L2C_pq_access 3367891
Core_1_L2C_pq_forward 0
Core_1_L2C_pq_merged 0
Core_1_L2C_pq_to_cache 3367891
Core_1_L2C_pq_full 0

Core_1_L2C_acc_epochs 163363
Core_1_L2C_acc_level_0 44534
Core_1_L2C_acc_level_1 16472
Core_1_L2C_acc_level_2 12682
Core_1_L2C_acc_level_3 9936
Core_1_L2C_acc_level_4 6911
Core_1_L2C_acc_level_5 9172
Core_1_L2C_acc_level_6 5962
Core_1_L2C_acc_level_7 5932
Core_1_L2C_acc_level_8 4862
Core_1_L2C_acc_level_9 46900

Core_1_LLC_total_access 3066636
Core_1_LLC_total_hit 2608624
Core_1_LLC_total_miss 458012
Core_1_LLC_loads 465709
Core_1_LLC_load_hit 421790
Core_1_LLC_load_miss 43919
Core_1_LLC_RFOs 44273
Core_1_LLC_RFO_hit 28309
Core_1_LLC_RFO_miss 15964
Core_1_LLC_prefetches 1987766
Core_1_LLC_prefetch_hit 1601117
Core_1_LLC_prefetch_miss 386649
Core_1_LLC_writebacks 568888
Core_1_LLC_writeback_hit 557408
Core_1_LLC_writeback_miss 11480
Core_1_LLC_prefetch_requested 0
Core_1_LLC_prefetch_dropped 0
Core_1_LLC_prefetch_issued 0
Core_1_LLC_prefetch_filled 2000887
Core_1_LLC_prefetch_useful 391333
Core_1_LLC_prefetch_useless 1551099
Core_1_LLC_prefetch_late 120
Core_1_LLC_average_miss_latency 786.08316

Core_1_LLC_rq_access 1380023
Core_1_LLC_rq_forward 0
Core_1_LLC_rq_merged 0
Core_1_LLC_rq_to_cache 1380017
Core_1_LLC_rq_full 0

Core_1_LLC_wq_access 1453403
Core_1_LLC_wq_forward 8
Core_1_LLC_wq_merged 0
Core_1_LLC_wq_to_cache 1453403
Core_1_LLC_wq_full 0

Core_1_LLC_pq_access 8469627
Core_1_LLC_pq_forward 0
Core_1_LLC_pq_merged 0
Core_1_LLC_pq_to_cache 8469624
Core_1_LLC_pq_full 0

Core_1_LLC_acc_epochs 1185522
Core_1_LLC_acc_level_0 1097727
Core_1_LLC_acc_level_1 30105
Core_1_LLC_acc_level_2 20832
Core_1_LLC_acc_level_3 4835
Core_1_LLC_acc_level_4 1833
Core_1_LLC_acc_level_5 15166
Core_1_LLC_acc_level_6 1463
Core_1_LLC_acc_level_7 1963
Core_1_LLC_acc_level_8 882
Core_1_LLC_acc_level_9 10716

Core_1_major_page_fault 0
Core_1_minor_page_fault 1756

Core_2_instructions 150000000
Core_2_cycles 983749508
Core_2_IPC 0.15248

Core_2_branch_prediction_accuracy 99.65388
Core_2_branch_MPKI 0.72417
Core_2_average_ROB_occupancy_at_mispredict 229.94832

Core_2_L1D_total_access 23265902
Core_2_L1D_total_hit 22931836
Core_2_L1D_total_miss 334066
Core_2_L1D_loads 14092053
Core_2_L1D_load_hit 13758846
Core_2_L1D_load_miss 333207
Core_2_L1D_RFOs 9173849
Core_2_L1D_RFO_hit 9172990
Core_2_L1D_RFO_miss 859
Core_2_L1D_prefetches 0
Core_2_L1D_prefetch_hit 0
Core_2_L1D_prefetch_miss 0
Core_2_L1D_writebacks 0
Core_2_L1D_writeback_hit 0
Core_2_L1D_writeback_miss 0
Core_2_L1D_prefetch_requested 0
Core_2_L1D_prefetch_dropped 0
Core_2_L1D_prefetch_issued 0
Core_2_L1D_prefetch_filled 0
Core_2_L1D_prefetch_useful 0
Core_2_L1D_prefetch_useless 0
Core_2_L1D_prefetch_late 0
Core_2_L1D_average_miss_latency 112.64229

Core_2_L1D_rq_access 24412105
Core_2_L1D_rq_forward 0
Core_2_L1D_rq_merged 7361733
Core_2_L1D_rq_to_cache 17050275
Core_2_L1D_rq_full 0

Core_2_L1D_wq_access 11262300
Core_2_L1D_wq_forward 97
Core_2_L1D_wq_merged 139624
Core_2_L1D_wq_to_cache 11122676
Core_2_L1D_wq_full 0

Core_2_L1D_pq_access 0
Core_2_L1D_pq_forward 0
Core_2_L1D_pq_merged 0
Core_2_L1D_pq_to_cache 0
Core_2_L1D_pq_full 0

Core_2_L1D_acc_epochs 177866
Core_2_L1D_acc_level_0 177866
Core_2_L1D_acc_level_1 0
Core_2_L1D_acc_level_2 0
Core_2_L1D_acc_level_3 0
Core_2_L1D_acc_level_4 0
Core_2_L1D_acc_level_5 0
Core_2_L1D_acc_level_6 0
Core_2_L1D_acc_level_7 0
Core_2_L1D_acc_level_8 0
Core_2_L1D_acc_level_9 0

Core_2_L1I_total_access 41810057
Core_2_L1I_total_hit 41809406
Core_2_L1I_total_miss 651
Core_2_L1I_loads 41810057
Core_2_L1I_load_hit 41809406
Core_2_L1I_load_miss 651
Core_2_L1I_RFOs 0
Core_2_L1I_RFO_hit 0
Core_2_L1I_RFO_miss 0
Core_2_L1I_prefetches 0
Core_2_L1I_prefetch_hit 0
Core_2_L1I_prefetch_miss 0
Core_2_L1I_writebacks 0
Core_2_L1I_writeback_hit 0
Core_2_L1I_writeback_miss 0
Core_2_L1I_prefetch_requested 0
Core_2_L1I_prefetch_dropped 0
Core_2_L1I_prefetch_issued 0
Core_2_L1I_prefetch_filled 0
Core_2_L1I_prefetch_useful 0
Core_2_L1I_prefetch_useless 0
Core_2_L1I_prefetch_late 0
Core_2_L1I_average_miss_latency 166.65745

Core_2_L1I_rq_access 181153279
Core_2_L1I_rq_forward 0
Core_2_L1I_rq_merged 130857080
Core_2_L1I_rq_to_cache 50296199
Core_2_L1I_rq_full 0

Core_2_L1I_wq_access 0
Core_2_L1I_wq_forward 0
Core_2_L1I_wq_merged 0
Core_2_L1I_wq_to_cache 0
Core_2_L1I_wq_full 0

Core_2_L1I_pq_access 0
Core_2_L1I_pq_forward 0
Core_2_L1I_pq_merged 0
Core_2_L1I_pq_to_cache 0
Core_2_L1I_pq_full 0

Core_2_L1I_acc_epochs 177866
Core_2_L1I_acc_level_0 177866
Core_2_L1I_acc_level_1 0
Core_2_L1I_acc_level_2 0
Core_2_L1I_acc_level_3 0
Core_2_L1I_acc_level_4 0
Core_2_L1I_acc_level_5 0
Core_2_L1I_acc_level_6 0
Core_2_L1I_acc_level_7 0
Core_2_L1I_acc_level_8 0
Core_2_L1I_acc_level_9 0

Core_2_L2C_total_access 787222
Core_2_L2C_total_hit 454122
Core_2_L2C_total_miss 333100
Core_2_L2C_loads 333858
Core_2_L2C_load_hit 173372
Core_2_L2C_load_miss 160486
Core_2_L2C_RFOs 859
Core_2_L2C_RFO_hit 119
Core_2_L2C_RFO_miss 740
Core_2_L2C_prefetches 304140
Core_2_L2C_prefetch_hit 132411
Core_2_L2C_prefetch_miss 171729
Core_2_L2C_writebacks 148365
Core_2_L2C_writeback_hit 148220
Core_2_L2C_writeback_miss 145
Core_2_L2C_prefetch_requested 1908997
Core_2_L2C_prefetch_dropped 0
Core_2_L2C_prefetch_issued 1908997
Core_2_L2C_prefetch_filled 267509
Core_2_L2C_prefetch_useful 220171
Core_2_L2C_prefetch_useless 46917
Core_2_L2C_prefetch_late 164
Core_2_L2C_average_miss_latency 207.63876

Core_2_L2C_rq_access 403549
Core_2_L2C_rq_forward 0
Core_2_L2C_rq_merged 0
Core_2_L2C_rq_to_cache 403549
Core_2_L2C_rq_full 0

Core_2_L2C_wq_access 178568
Core_2_L2C_wq_forward 0
Core_2_L2C_wq_merged 0
Core_2_L2C_wq_to_cache 178568
Core_2_L2C_wq_full 0

Core_2_L2C_pq_access 1908997
Core_2_L2C_pq_forward 0
Core_2_L2C_pq_merged 0
Core_2_L2C_pq_to_cache 1908997
Core_2_L2C_pq_full 0

Core_2_L2C_acc_epochs 177866
Core_2_L2C_acc_level_0 122674
Core_2_L2C_acc_level_1 16371
Core_2_L2C_acc_level_2 9506
Core_2_L2C_acc_level_3 5653
Core_2_L2C_acc_level_4 1217
Core_2_L2C_acc_level_5 6925
Core_2_L2C_acc_level_6 1476
Core_2_L2C_acc_level_7 3390
Core_2_L2C_acc_level_8 700
Core_2_L2C_acc_level_9 9954

Core_2_LLC_total_access 1430921
Core_2_LLC_total_hit 1083971
Core_2_LLC_total_miss 346950
Core_2_LLC_loads 160363
Core_2_LLC_load_hit 135027
Core_2_LLC_load_miss 25336
Core_2_LLC_RFOs 740
Core_2_LLC_RFO_hit 111
Core_2_LLC_RFO_miss 629
Core_2_LLC_prefetches 1127131
Core_2_LLC_prefetch_hit 813328
Core_2_LLC_prefetch_miss 313803
Core_2_LLC_writebacks 142687
Core_2_LLC_writeback_hit 135505
Core_2_LLC_writeback_miss 7182
Core_2_LLC_prefetch_requested 0
Core_2_LLC_prefetch_dropped 0
Core_2_LLC_prefetch_issued 0
Core_2_LLC_prefetch_filled 2000887
Core_2_LLC_prefetch_useful 391333
Core_2_LLC_prefetch_useless 1551099
Core_2_LLC_prefetch_late 120
Core_2_LLC_average_miss_latency 1037.71587

Core_2_LLC_rq_access 1380023
Core_2_LLC_rq_forward 0
Core_2_LLC_rq_merged 0
Core_2_LLC_rq_to_cache 1380017
Core_2_LLC_rq_full 0

Core_2_LLC_wq_access 1453403
Core_2_LLC_wq_forward 8
Core_2_LLC_wq_merged 0
Core_2_LLC_wq_to_cache 1453403
Core_2_LLC_wq_full 0

Core_2_LLC_pq_access 8469627
Core_2_LLC_pq_forward 0
Core_2_LLC_pq_merged 0
Core_2_LLC_pq_to_cache 8469624
Core_2_LLC_pq_full 0

Core_2_LLC_acc_epochs 1185522
Core_2_LLC_acc_level_0 1097727
Core_2_LLC_acc_level_1 30105
Core_2_LLC_acc_level_2 20832
Core_2_LLC_acc_level_3 4835
Core_2_LLC_acc_level_4 1833
Core_2_LLC_acc_level_5 15166
Core_2_LLC_acc_level_6 1463
Core_2_LLC_acc_level_7 1963
Core_2_LLC_acc_level_8 882
Core_2_LLC_acc_level_9 10716

Core_2_major_page_fault 0
Core_2_minor_page_fault 2062

Core_3_instructions 150000003
Core_3_cycles 950309455
Core_3_IPC 0.15784

Core_3_branch_prediction_accuracy 99.75456
Core_3_branch_MPKI 0.51074
Core_3_average_ROB_occupancy_at_mispredict 239.52000

Core_3_L1D_total_access 22837635
Core_3_L1D_total_hit 22510277
Core_3_L1D_total_miss 327358
Core_3_L1D_loads 13857828
Core_3_L1D_load_hit 13530858
Core_3_L1D_load_miss 326970
Core_3_L1D_RFOs 8979807
Core_3_L1D_RFO_hit 8979419
Core_3_L1D_RFO_miss 388
Core_3_L1D_prefetches 0
Core_3_L1D_prefetch_hit 0
Core_3_L1D_prefetch_miss 0
Core_3_L1D_writebacks 0
Core_3_L1D_writeback_hit 0
Core_3_L1D_writeback_miss 0
Core_3_L1D_prefetch_requested 0
Core_3_L1D_prefetch_dropped 0
Core_3_L1D_prefetch_issued 0
Core_3_L1D_prefetch_filled 0
Core_3_L1D_prefetch_useful 0
Core_3_L1D_prefetch_useless 0
Core_3_L1D_prefetch_late 0
Core_3_L1D_average_miss_latency 114.02714

Core_3_L1D_rq_access 25312173
Core_3_L1D_rq_forward 0
Core_3_L1D_rq_merged 7907541
Core_3_L1D_rq_to_cache 17404444
Core_3_L1D_rq_full 0

Core_3_L1D_wq_access 11470305
Core_3_L1D_wq_forward 188
Core_3_L1D_wq_merged 197942
Core_3_L1D_wq_to_cache 11272363
Core_3_L1D_wq_full 0

Core_3_L1D_pq_access 0
Core_3_L1D_pq_forward 0
Core_3_L1D_pq_merged 0
Core_3_L1D_pq_to_cache 0
Core_3_L1D_pq_full 0

Core_3_L1D_acc_epochs 178490
Core_3_L1D_acc_level_0 178490
Core_3_L1D_acc_level_1 0
Core_3_L1D_acc_level_2 0
Core_3_L1D_acc_level_3 0
Core_3_L1D_acc_level_4 0
Core_3_L1D_acc_level_5 0
Core_3_L1D_acc_level_6 0
Core_3_L1D_acc_level_7 0
Core_3_L1D_acc_level_8 0
Core_3_L1D_acc_level_9 0

Core_3_L1I_total_access 42533454
Core_3_L1I_total_hit 42533454
Core_3_L1I_total_miss 0
Core_3_L1I_loads 42533454
Core_3_L1I_load_hit 42533454
Core_3_L1I_load_miss 0
Core_3_L1I_RFOs 0
Core_3_L1I_RFO_hit 0
Core_3_L1I_RFO_miss 0
Core_3_L1I_prefetches 0
Core_3_L1I_prefetch_hit 0
Core_3_L1I_prefetch_miss 0
Core_3_L1I_writebacks 0
Core_3_L1I_writeback_hit 0
Core_3_L1I_writeback_miss 0
Core_3_L1I_prefetch_requested 0
Core_3_L1I_prefetch_dropped 0
Core_3_L1I_prefetch_issued 0
Core_3_L1I_prefetch_filled 0
Core_3_L1I_prefetch_useful 0
Core_3_L1I_prefetch_useless 0
Core_3_L1I_prefetch_late 0
Core_3_L1I_average_miss_latency -nan

Core_3_L1I_rq_access 188286079
Core_3_L1I_rq_forward 0
Core_3_L1I_rq_merged 134906402
Core_3_L1I_rq_to_cache 53379677
Core_3_L1I_rq_full 0

Core_3_L1I_wq_access 0
Core_3_L1I_wq_forward 0
Core_3_L1I_wq_merged 0
Core_3_L1I_wq_to_cache 0
Core_3_L1I_wq_full 0

Core_3_L1I_pq_access 0
Core_3_L1I_pq_forward 0
Core_3_L1I_pq_merged 0
Core_3_L1I_pq_to_cache 0
Core_3_L1I_pq_full 0

Core_3_L1I_acc_epochs 178490
Core_3_L1I_acc_level_0 178490
Core_3_L1I_acc_level_1 0
Core_3_L1I_acc_level_2 0
Core_3_L1I_acc_level_3 0
Core_3_L1I_acc_level_4 0
Core_3_L1I_acc_level_5 0
Core_3_L1I_acc_level_6 0
Core_3_L1I_acc_level_7 0
Core_3_L1I_acc_level_8 0
Core_3_L1I_acc_level_9 0

Core_3_L2C_total_access 775346
Core_3_L2C_total_hit 457660
Core_3_L2C_total_miss 317686
Core_3_L2C_loads 326970
Core_3_L2C_load_hit 172143
Core_3_L2C_load_miss 154827
Core_3_L2C_RFOs 388
Core_3_L2C_RFO_hit 57
Core_3_L2C_RFO_miss 331
Core_3_L2C_prefetches 301846
Core_3_L2C_prefetch_hit 139417
Core_3_L2C_prefetch_miss 162429
Core_3_L2C_writebacks 146142
Core_3_L2C_writeback_hit 146043
Core_3_L2C_writeback_miss 99
Core_3_L2C_prefetch_requested 1998847
Core_3_L2C_prefetch_dropped 0
Core_3_L2C_prefetch_issued 1998847
Core_3_L2C_prefetch_filled 269938
Core_3_L2C_prefetch_useful 224406
Core_3_L2C_prefetch_useless 45215
Core_3_L2C_prefetch_late 185
Core_3_L2C_average_miss_latency 213.83328

Core_3_L2C_rq_access 411141
Core_3_L2C_rq_forward 0
Core_3_L2C_rq_merged 0
Core_3_L2C_rq_to_cache 411141
Core_3_L2C_rq_full 0

Core_3_L2C_wq_access 183488
Core_3_L2C_wq_forward 0
Core_3_L2C_wq_merged 0
Core_3_L2C_wq_to_cache 183488
Core_3_L2C_wq_full 0

Core_3_L2C_pq_access 1998847
Core_3_L2C_pq_forward 0
Core_3_L2C_pq_merged 0
Core_3_L2C_pq_to_cache 1998847
Core_3_L2C_pq_full 0

Core_3_L2C_acc_epochs 178490
Core_3_L2C_acc_level_0 124812
Core_3_L2C_acc_level_1 16072
Core_3_L2C_acc_level_2 9488
Core_3_L2C_acc_level_3 5182
Core_3_L2C_acc_level_4 1301
Core_3_L2C_acc_level_5 6857
Core_3_L2C_acc_level_6 1375
Core_3_L2C_acc_level_7 3049
Core_3_L2C_acc_level_8 700
Core_3_L2C_acc_level_9 9654

Core_3_LLC_total_access 1412698
Core_3_LLC_total_hit 1092154
Core_3_LLC_total_miss 320544
Core_3_LLC_loads 154692
Core_3_LLC_load_hit 132185
Core_3_LLC_load_miss 22507
Core_3_LLC_RFOs 331
Core_3_LLC_RFO_hit 44
Core_3_LLC_RFO_miss 287
Core_3_LLC_prefetches 1116933
Core_3_LLC_prefetch_hit 824656
Core_3_LLC_prefetch_miss 292277
Core_3_LLC_writebacks 140742
Core_3_LLC_writeback_hit 135269
Core_3_LLC_writeback_miss 5473
Core_3_LLC_prefetch_requested 0
Core_3_LLC_prefetch_dropped 0
Core_3_LLC_prefetch_issued 0
Core_3_LLC_prefetch_filled 2000887
Core_3_LLC_prefetch_useful 391333
Core_3_LLC_prefetch_useless 1551099
Core_3_LLC_prefetch_late 120
Core_3_LLC_average_miss_latency 1123.20156

Core_3_LLC_rq_access 1380023
Core_3_LLC_rq_forward 0
Core_3_LLC_rq_merged 0
Core_3_LLC_rq_to_cache 1380017
Core_3_LLC_rq_full 0

Core_3_LLC_wq_access 1453403
Core_3_LLC_wq_forward 8
Core_3_LLC_wq_merged 0
Core_3_LLC_wq_to_cache 1453403
Core_3_LLC_wq_full 0

Core_3_LLC_pq_access 8469627
Core_3_LLC_pq_forward 0
Core_3_LLC_pq_merged 0
Core_3_LLC_pq_to_cache 8469624
Core_3_LLC_pq_full 0

Core_3_LLC_acc_epochs 1185522
Core_3_LLC_acc_level_0 1097727
Core_3_LLC_acc_level_1 30105
Core_3_LLC_acc_level_2 20832
Core_3_LLC_acc_level_3 4835
Core_3_LLC_acc_level_4 1833
Core_3_LLC_acc_level_5 15166
Core_3_LLC_acc_level_6 1463
Core_3_LLC_acc_level_7 1963
Core_3_LLC_acc_level_8 882
Core_3_LLC_acc_level_9 10716

Core_3_major_page_fault 0
Core_3_minor_page_fault 1717

[Bingo] PHT Access: 260473
[Bingo] PHT Hit PC+Addr: 34020
[Bingo] PHT Hit PC+Offs: 186662
[Bingo] PHT Miss: 39791
[Bingo] Prefetch PC+Addr: 0
[Bingo] Prefetch PC+Offs: 0
[Bingo] Useful PC+Addr: 0
[Bingo] Useful PC+Offs: 0
[Bingo] Useless PC+Addr: 0
[Bingo] Useless PC+Offs: 0
[Bingo] L1 Prefetch per Region: 0.00000
[Bingo] L2 Prefetch per Region: 4.73354
[Bingo] L3 Prefetch per Region: 10.48492
[Bingo] No Prefetch per Region: 16.78154
[Bingo] Number of Voters Mean: 8.45476
[Bingo] Number of Voters SD: 5.22243

[Bingo] PHT Access: 289623
[Bingo] PHT Hit PC+Addr: 37636
[Bingo] PHT Hit PC+Offs: 199787
[Bingo] PHT Miss: 52200
[Bingo] Prefetch PC+Addr: 0
[Bingo] Prefetch PC+Offs: 0
[Bingo] Useful PC+Addr: 0
[Bingo] Useful PC+Offs: 0
[Bingo] Useless PC+Addr: 0
[Bingo] Useless PC+Offs: 0
[Bingo] L1 Prefetch per Region: 0.00000
[Bingo] L2 Prefetch per Region: 4.71341
[Bingo] L3 Prefetch per Region: 10.58380
[Bingo] No Prefetch per Region: 16.70279
[Bingo] Number of Voters Mean: 7.36261
[Bingo] Number of Voters SD: 5.02648

[Bingo] PHT Access: 129384
[Bingo] PHT Hit PC+Addr: 22228
[Bingo] PHT Hit PC+Offs: 101392
[Bingo] PHT Miss: 5764
[Bingo] Prefetch PC+Addr: 0
[Bingo] Prefetch PC+Offs: 0
[Bingo] Useful PC+Addr: 0
[Bingo] Useful PC+Offs: 0
[Bingo] Useless PC+Addr: 0
[Bingo] Useless PC+Offs: 0
[Bingo] L1 Prefetch per Region: 0.00000
[Bingo] L2 Prefetch per Region: 3.40311
[Bingo] L3 Prefetch per Region: 13.33755
[Bingo] No Prefetch per Region: 15.25934
[Bingo] Number of Voters Mean: 11.64004
[Bingo] Number of Voters SD: 5.60858

[Bingo] PHT Access: 128683
[Bingo] PHT Hit PC+Addr: 22611
[Bingo] PHT Hit PC+Offs: 100511
[Bingo] PHT Miss: 5561
[Bingo] Prefetch PC+Addr: 0
[Bingo] Prefetch PC+Offs: 0
[Bingo] Useful PC+Addr: 0
[Bingo] Useful PC+Offs: 0
[Bingo] Useless PC+Addr: 0
[Bingo] Useless PC+Offs: 0
[Bingo] L1 Prefetch per Region: 0.00000
[Bingo] L2 Prefetch per Region: 3.44185
[Bingo] L3 Prefetch per Region: 14.09560
[Bingo] No Prefetch per Region: 14.46254
[Bingo] Number of Voters Mean: 11.71212
[Bingo] Number of Voters SD: 5.64094

Channel_0_RQ_row_buffer_hit 290272
Channel_0_RQ_row_buffer_miss 566568
Channel_0_WQ_row_buffer_hit 12961
Channel_0_WQ_row_buffer_miss 268880
Channel_0_WQ_full 0
Channel_0_dbus_congested 687981

Channel_1_RQ_row_buffer_hit 294635
Channel_1_RQ_row_buffer_miss 550211
Channel_1_WQ_row_buffer_hit 12071
Channel_1_WQ_row_buffer_miss 267102
Channel_1_WQ_full 0
Channel_1_dbus_congested 692351

avg_congested_cycle 11

DRAM_bw_pochs 4742085
DRAM_bw_level_0 4642529
DRAM_bw_level_1 62592
DRAM_bw_level_2 20337
DRAM_bw_level_3 16627
