*************************************************
   ChampSim Multicore Out-of-Order Simulator
   Last compiled: Mar 31 2025 20:14:32
*************************************************
parsing config file: /data3/config/nopref.ini

trace_0 /data3/CLOUD9/traces/cloud9_phase5_core0.trace.xz
trace_1 /data3/CLOUD9/traces/cloud9_phase5_core1.trace.xz
trace_2 /data3/CLOUD9/traces/cloud9_phase5_core2.trace.xz
trace_3 /data3/CLOUD9/traces/cloud9_phase5_core3.trace.xz
adding L2C_PREFETCHER: NONE
adding L2C_PREFETCHER: NONE
adding L2C_PREFETCHER: NONE
adding L2C_PREFETCHER: NONE
Initialize SHIP state
warmup_instructions 50000000
simulation_instructions 150000000
champsim_seed 7354
measure_ipc 0
measure_ipc_epoch 1000
measure_dram_bw 1
measure_dram_bw_epoch 256
measure_cache_acc 1
measure_cache_acc_epoch 1024
l1d_perfect 0
l2c_perfect 0
llc_perfect 0
l1d_semi_perfect 0
l2c_semi_perfect 0
llc_semi_perfect 0
semi_perfect_cache_page_buffer_size 64

num_cpus 4
cpu_freq 4000
dram_io_freq 2400
page_size 4096
block_size 64
max_read_per_cycle 8
max_fill_per_cycle 1
dram_channels 2
log2_dram_channels 1
dram_ranks 1
dram_banks 8
dram_rows 65536
dram_columns 128
dram_row_size 8
dram_size 8192
dram_pages 2097152

fetch_width 6
decode_width 6
exec_width 4
lq_width 2
sq_width 2
retire_width 4
scheduler_size 128
branch_mispredict_penalty 20
rob_size 256
lq_size 72
sq_size 56
num_instr_destinations_sparc 4
num_instr_destinations 2
num_instr_sources 4

itlb_set 16
itlb_way 8
itlb_rq_size 16
itlb_wq_size 16
itlb_pq_size 0
itlb_mshr_size 8
itlb_latency 1

dtlb_set 16
dtlb_way 4
dtlb_rq_size 16
dtlb_wq_size 16
dtlb_pq_size 0
dtlb_mshr_size 8
dtlb_latency 1

stlb_set 128
stlb_way 12
stlb_rq_size 32
stlb_wq_size 32
stlb_pq_size 0
stlb_mshr_size 16
stlb_latency 8

l1i_size 32
l1i_set 64
l1i_way 8
l1i_rq_size 64
l1i_wq_size 64
l1i_pq_size 8
l1i_mshr_size 8
l1i_latency 1

l1d_size 32
l1d_set 64
l1d_way 8
l1d_rq_size 64
l1d_wq_size 64
l1d_pq_size 8
l1d_mshr_size 16
l1d_latency 4

l2c_size 256
l2c_set 512
l2c_way 8
l2c_rq_size 32
l2c_wq_size 32
l2c_pq_size 32
l2c_mshr_size 32
l2c_latency 10

llc_size 8192
llc_set 8192
llc_way 16
llc_rq_size 128
llc_wq_size 128
llc_pq_size 128
llc_mshr_size 256
llc_latency 20

dram_channel_width 8
dram_wq_size 64
dram_rq_size 64
tRP 15
tRCD 15
tCAS 12.5
dram_dbus_turn_around_time 30
dram_write_high_wm 56
dram_write_low_wm 48
min_dram_writes_per_switch 16
dram_mtps 2400
dram_dbus_return_time 13


Heartbeat CPU  1 instructions:    1000003 cycles:     401072 heartbeat IPC: 2.49333 cumulative IPC: 2.49333 (Simulation time: 0 hr 0 min 8 sec) 
Heartbeat CPU  3 instructions:    1000001 cycles:     414900 heartbeat IPC: 2.41022 cumulative IPC: 2.41022 (Simulation time: 0 hr 0 min 9 sec) 
Heartbeat CPU  2 instructions:    1000002 cycles:     428126 heartbeat IPC: 2.33577 cumulative IPC: 2.33577 (Simulation time: 0 hr 0 min 9 sec) 
Heartbeat CPU  0 instructions:    1000001 cycles:     428581 heartbeat IPC: 2.33328 cumulative IPC: 2.33328 (Simulation time: 0 hr 0 min 9 sec) 
Heartbeat CPU  1 instructions:    2000001 cycles:     796591 heartbeat IPC: 2.52832 cumulative IPC: 2.51070 (Simulation time: 0 hr 0 min 17 sec) 
Heartbeat CPU  2 instructions:    2000002 cycles:     815712 heartbeat IPC: 2.58007 cumulative IPC: 2.45185 (Simulation time: 0 hr 0 min 17 sec) 
Heartbeat CPU  0 instructions:    2000002 cycles:     833553 heartbeat IPC: 2.46931 cumulative IPC: 2.39937 (Simulation time: 0 hr 0 min 18 sec) 
Heartbeat CPU  3 instructions:    2000002 cycles:     861930 heartbeat IPC: 2.23699 cumulative IPC: 2.32038 (Simulation time: 0 hr 0 min 18 sec) 
Heartbeat CPU  1 instructions:    3000001 cycles:    1191940 heartbeat IPC: 2.52941 cumulative IPC: 2.51691 (Simulation time: 0 hr 0 min 25 sec) 
Heartbeat CPU  2 instructions:    3000000 cycles:    1202376 heartbeat IPC: 2.58622 cumulative IPC: 2.49506 (Simulation time: 0 hr 0 min 26 sec) 
Heartbeat CPU  0 instructions:    3000000 cycles:    1226860 heartbeat IPC: 2.54254 cumulative IPC: 2.44527 (Simulation time: 0 hr 0 min 26 sec) 
Heartbeat CPU  3 instructions:    3000001 cycles:    1319813 heartbeat IPC: 2.18396 cumulative IPC: 2.27305 (Simulation time: 0 hr 0 min 28 sec) 
Heartbeat CPU  1 instructions:    4000000 cycles:    1588279 heartbeat IPC: 2.52309 cumulative IPC: 2.51845 (Simulation time: 0 hr 0 min 34 sec) 
Heartbeat CPU  2 instructions:    4000000 cycles:    1589370 heartbeat IPC: 2.58402 cumulative IPC: 2.51672 (Simulation time: 0 hr 0 min 34 sec) 
Heartbeat CPU  0 instructions:    4000000 cycles:    1624816 heartbeat IPC: 2.51284 cumulative IPC: 2.46182 (Simulation time: 0 hr 0 min 35 sec) 
Heartbeat CPU  3 instructions:    4000000 cycles:    1739736 heartbeat IPC: 2.38139 cumulative IPC: 2.29920 (Simulation time: 0 hr 0 min 38 sec) 
Heartbeat CPU  2 instructions:    5000001 cycles:    1976654 heartbeat IPC: 2.58209 cumulative IPC: 2.52953 (Simulation time: 0 hr 0 min 43 sec) 
Heartbeat CPU  1 instructions:    5000000 cycles:    1985480 heartbeat IPC: 2.51762 cumulative IPC: 2.51828 (Simulation time: 0 hr 0 min 43 sec) 
Heartbeat CPU  0 instructions:    5000001 cycles:    2013583 heartbeat IPC: 2.57224 cumulative IPC: 2.48314 (Simulation time: 0 hr 0 min 44 sec) 
Heartbeat CPU  3 instructions:    5000003 cycles:    2158990 heartbeat IPC: 2.38520 cumulative IPC: 2.31590 (Simulation time: 0 hr 0 min 47 sec) 
Heartbeat CPU  2 instructions:    6000002 cycles:    2359052 heartbeat IPC: 2.61508 cumulative IPC: 2.54340 (Simulation time: 0 hr 0 min 51 sec) 
Heartbeat CPU  1 instructions:    6000002 cycles:    2382274 heartbeat IPC: 2.52020 cumulative IPC: 2.51860 (Simulation time: 0 hr 0 min 52 sec) 
Heartbeat CPU  0 instructions:    6000003 cycles:    2398857 heartbeat IPC: 2.59556 cumulative IPC: 2.50119 (Simulation time: 0 hr 0 min 52 sec) 
Heartbeat CPU  3 instructions:    6000001 cycles:    2595248 heartbeat IPC: 2.29222 cumulative IPC: 2.31192 (Simulation time: 0 hr 0 min 56 sec) 
Heartbeat CPU  2 instructions:    7000003 cycles:    2753616 heartbeat IPC: 2.53445 cumulative IPC: 2.54211 (Simulation time: 0 hr 1 min 0 sec) 
Heartbeat CPU  1 instructions:    7000002 cycles:    2788936 heartbeat IPC: 2.45904 cumulative IPC: 2.50992 (Simulation time: 0 hr 1 min 1 sec) 
Heartbeat CPU  0 instructions:    7000003 cycles:    2807717 heartbeat IPC: 2.44582 cumulative IPC: 2.49313 (Simulation time: 0 hr 1 min 1 sec) 
Heartbeat CPU  3 instructions:    7000003 cycles:    2997090 heartbeat IPC: 2.48855 cumulative IPC: 2.33560 (Simulation time: 0 hr 1 min 5 sec) 
Heartbeat CPU  2 instructions:    8000000 cycles:    3142234 heartbeat IPC: 2.57321 cumulative IPC: 2.54596 (Simulation time: 0 hr 1 min 8 sec) 
Heartbeat CPU  1 instructions:    8000000 cycles:    3186205 heartbeat IPC: 2.51718 cumulative IPC: 2.51082 (Simulation time: 0 hr 1 min 9 sec) 
Heartbeat CPU  0 instructions:    8000000 cycles:    3197307 heartbeat IPC: 2.56679 cumulative IPC: 2.50211 (Simulation time: 0 hr 1 min 10 sec) 
Heartbeat CPU  3 instructions:    8000000 cycles:    3389102 heartbeat IPC: 2.55093 cumulative IPC: 2.36051 (Simulation time: 0 hr 1 min 14 sec) 
Heartbeat CPU  2 instructions:    9000000 cycles:    3529963 heartbeat IPC: 2.57912 cumulative IPC: 2.54960 (Simulation time: 0 hr 1 min 17 sec) 
Heartbeat CPU  0 instructions:    9000001 cycles:    3578408 heartbeat IPC: 2.62398 cumulative IPC: 2.51509 (Simulation time: 0 hr 1 min 19 sec) 
Heartbeat CPU  1 instructions:    9000001 cycles:    3583479 heartbeat IPC: 2.51716 cumulative IPC: 2.51153 (Simulation time: 0 hr 1 min 19 sec) 
Heartbeat CPU  3 instructions:    9000000 cycles:    3784195 heartbeat IPC: 2.53105 cumulative IPC: 2.37831 (Simulation time: 0 hr 1 min 23 sec) 
Heartbeat CPU  2 instructions:   10000001 cycles:    3913619 heartbeat IPC: 2.60650 cumulative IPC: 2.55518 (Simulation time: 0 hr 1 min 26 sec) 
Heartbeat CPU  0 instructions:   10000003 cycles:    3971946 heartbeat IPC: 2.54106 cumulative IPC: 2.51766 (Simulation time: 0 hr 1 min 27 sec) 
Heartbeat CPU  1 instructions:   10000000 cycles:    3982110 heartbeat IPC: 2.50858 cumulative IPC: 2.51123 (Simulation time: 0 hr 1 min 28 sec) 
Heartbeat CPU  3 instructions:   10000003 cycles:    4177854 heartbeat IPC: 2.54028 cumulative IPC: 2.39357 (Simulation time: 0 hr 1 min 32 sec) 
Heartbeat CPU  2 instructions:   11000002 cycles:    4300904 heartbeat IPC: 2.58208 cumulative IPC: 2.55760 (Simulation time: 0 hr 1 min 35 sec) 
Heartbeat CPU  0 instructions:   11000001 cycles:    4360874 heartbeat IPC: 2.57116 cumulative IPC: 2.52243 (Simulation time: 0 hr 1 min 36 sec) 
Heartbeat CPU  1 instructions:   11000003 cycles:    4379753 heartbeat IPC: 2.51483 cumulative IPC: 2.51156 (Simulation time: 0 hr 1 min 37 sec) 
Heartbeat CPU  3 instructions:   11000003 cycles:    4574314 heartbeat IPC: 2.52232 cumulative IPC: 2.40473 (Simulation time: 0 hr 1 min 41 sec) 
Heartbeat CPU  2 instructions:   12000000 cycles:    4687094 heartbeat IPC: 2.58939 cumulative IPC: 2.56022 (Simulation time: 0 hr 1 min 44 sec) 
Heartbeat CPU  0 instructions:   12000000 cycles:    4750051 heartbeat IPC: 2.56952 cumulative IPC: 2.52629 (Simulation time: 0 hr 1 min 45 sec) 
Heartbeat CPU  1 instructions:   12000000 cycles:    4774765 heartbeat IPC: 2.53156 cumulative IPC: 2.51321 (Simulation time: 0 hr 1 min 46 sec) 
Heartbeat CPU  3 instructions:   12000000 cycles:    4968320 heartbeat IPC: 2.53802 cumulative IPC: 2.41530 (Simulation time: 0 hr 1 min 50 sec) 
Heartbeat CPU  2 instructions:   13000001 cycles:    5075203 heartbeat IPC: 2.57660 cumulative IPC: 2.56147 (Simulation time: 0 hr 1 min 53 sec) 
Heartbeat CPU  0 instructions:   13000003 cycles:    5140515 heartbeat IPC: 2.56106 cumulative IPC: 2.52893 (Simulation time: 0 hr 1 min 54 sec) 
Heartbeat CPU  1 instructions:   13000000 cycles:    5166796 heartbeat IPC: 2.55082 cumulative IPC: 2.51607 (Simulation time: 0 hr 1 min 55 sec) 
Heartbeat CPU  3 instructions:   13000000 cycles:    5363642 heartbeat IPC: 2.52958 cumulative IPC: 2.42373 (Simulation time: 0 hr 1 min 59 sec) 
Heartbeat CPU  2 instructions:   14000002 cycles:    5460268 heartbeat IPC: 2.59697 cumulative IPC: 2.56398 (Simulation time: 0 hr 2 min 2 sec) 
Heartbeat CPU  0 instructions:   14000001 cycles:    5522504 heartbeat IPC: 2.61787 cumulative IPC: 2.53508 (Simulation time: 0 hr 2 min 3 sec) 
Heartbeat CPU  1 instructions:   14000000 cycles:    5553003 heartbeat IPC: 2.58929 cumulative IPC: 2.52116 (Simulation time: 0 hr 2 min 4 sec) 
Heartbeat CPU  3 instructions:   14000000 cycles:    5758896 heartbeat IPC: 2.53002 cumulative IPC: 2.43102 (Simulation time: 0 hr 2 min 9 sec) 
Heartbeat CPU  2 instructions:   15000002 cycles:    5843336 heartbeat IPC: 2.61050 cumulative IPC: 2.56703 (Simulation time: 0 hr 2 min 10 sec) 
Heartbeat CPU  0 instructions:   15000002 cycles:    5910757 heartbeat IPC: 2.57564 cumulative IPC: 2.53775 (Simulation time: 0 hr 2 min 12 sec) 
Heartbeat CPU  1 instructions:   15000001 cycles:    5940311 heartbeat IPC: 2.58193 cumulative IPC: 2.52512 (Simulation time: 0 hr 2 min 13 sec) 
Heartbeat CPU  3 instructions:   15000000 cycles:    6152502 heartbeat IPC: 2.54061 cumulative IPC: 2.43803 (Simulation time: 0 hr 2 min 17 sec) 
Heartbeat CPU  2 instructions:   16000000 cycles:    6232459 heartbeat IPC: 2.56988 cumulative IPC: 2.56720 (Simulation time: 0 hr 2 min 19 sec) 
Heartbeat CPU  0 instructions:   16000000 cycles:    6302800 heartbeat IPC: 2.55074 cumulative IPC: 2.53855 (Simulation time: 0 hr 2 min 20 sec) 
Heartbeat CPU  1 instructions:   16000000 cycles:    6326896 heartbeat IPC: 2.58675 cumulative IPC: 2.52889 (Simulation time: 0 hr 2 min 20 sec) 
Heartbeat CPU  3 instructions:   16000000 cycles:    6547073 heartbeat IPC: 2.53440 cumulative IPC: 2.44384 (Simulation time: 0 hr 2 min 24 sec) 
Heartbeat CPU  2 instructions:   17000003 cycles:    6619839 heartbeat IPC: 2.58145 cumulative IPC: 2.56804 (Simulation time: 0 hr 2 min 26 sec) 
Heartbeat CPU  0 instructions:   17000003 cycles:    6690606 heartbeat IPC: 2.57862 cumulative IPC: 2.54088 (Simulation time: 0 hr 2 min 27 sec) 
Heartbeat CPU  1 instructions:   17000002 cycles:    6713138 heartbeat IPC: 2.58906 cumulative IPC: 2.53235 (Simulation time: 0 hr 2 min 27 sec) 
Heartbeat CPU  3 instructions:   17000002 cycles:    6941569 heartbeat IPC: 2.53488 cumulative IPC: 2.44901 (Simulation time: 0 hr 2 min 32 sec) 
Heartbeat CPU  2 instructions:   18000001 cycles:    7007204 heartbeat IPC: 2.58154 cumulative IPC: 2.56878 (Simulation time: 0 hr 2 min 34 sec) 
Heartbeat CPU  0 instructions:   18000000 cycles:    7070844 heartbeat IPC: 2.62992 cumulative IPC: 2.54567 (Simulation time: 0 hr 2 min 36 sec) 
Heartbeat CPU  1 instructions:   18000000 cycles:    7097856 heartbeat IPC: 2.59930 cumulative IPC: 2.53598 (Simulation time: 0 hr 2 min 36 sec) 
Heartbeat CPU  3 instructions:   18000001 cycles:    7337354 heartbeat IPC: 2.52662 cumulative IPC: 2.45320 (Simulation time: 0 hr 2 min 42 sec) 
Heartbeat CPU  2 instructions:   19000003 cycles:    7392177 heartbeat IPC: 2.59759 cumulative IPC: 2.57029 (Simulation time: 0 hr 2 min 43 sec) 
Heartbeat CPU  0 instructions:   19000000 cycles:    7475620 heartbeat IPC: 2.47050 cumulative IPC: 2.54160 (Simulation time: 0 hr 2 min 45 sec) 
Heartbeat CPU  1 instructions:   19000002 cycles:    7483837 heartbeat IPC: 2.59081 cumulative IPC: 2.53881 (Simulation time: 0 hr 2 min 45 sec) 
Heartbeat CPU  3 instructions:   19000000 cycles:    7731668 heartbeat IPC: 2.53605 cumulative IPC: 2.45743 (Simulation time: 0 hr 2 min 51 sec) 
Heartbeat CPU  2 instructions:   20000000 cycles:    7775289 heartbeat IPC: 2.61019 cumulative IPC: 2.57225 (Simulation time: 0 hr 2 min 52 sec) 
Heartbeat CPU  1 instructions:   20000000 cycles:    7871940 heartbeat IPC: 2.57663 cumulative IPC: 2.54067 (Simulation time: 0 hr 2 min 54 sec) 
Heartbeat CPU  0 instructions:   20000000 cycles:    7872560 heartbeat IPC: 2.51927 cumulative IPC: 2.54047 (Simulation time: 0 hr 2 min 54 sec) 
Heartbeat CPU  3 instructions:   20000000 cycles:    8126373 heartbeat IPC: 2.53354 cumulative IPC: 2.46112 (Simulation time: 0 hr 3 min 0 sec) 
Heartbeat CPU  2 instructions:   21000000 cycles:    8159314 heartbeat IPC: 2.60400 cumulative IPC: 2.57375 (Simulation time: 0 hr 3 min 1 sec) 
Heartbeat CPU  1 instructions:   21000002 cycles:    8257617 heartbeat IPC: 2.59285 cumulative IPC: 2.54311 (Simulation time: 0 hr 3 min 3 sec) 
Heartbeat CPU  0 instructions:   21000001 cycles:    8260198 heartbeat IPC: 2.57973 cumulative IPC: 2.54231 (Simulation time: 0 hr 3 min 3 sec) 
Heartbeat CPU  3 instructions:   21000003 cycles:    8519062 heartbeat IPC: 2.54655 cumulative IPC: 2.46506 (Simulation time: 0 hr 3 min 9 sec) 
Heartbeat CPU  2 instructions:   22000001 cycles:    8542156 heartbeat IPC: 2.61205 cumulative IPC: 2.57546 (Simulation time: 0 hr 3 min 10 sec) 
Heartbeat CPU  1 instructions:   22000002 cycles:    8643256 heartbeat IPC: 2.59310 cumulative IPC: 2.54534 (Simulation time: 0 hr 3 min 12 sec) 
Heartbeat CPU  0 instructions:   22000003 cycles:    8663376 heartbeat IPC: 2.48030 cumulative IPC: 2.53943 (Simulation time: 0 hr 3 min 12 sec) 
Heartbeat CPU  3 instructions:   22000001 cycles:    8915128 heartbeat IPC: 2.52483 cumulative IPC: 2.46772 (Simulation time: 0 hr 3 min 18 sec) 
Heartbeat CPU  2 instructions:   23000003 cycles:    8954749 heartbeat IPC: 2.42370 cumulative IPC: 2.56847 (Simulation time: 0 hr 3 min 19 sec) 
Heartbeat CPU  1 instructions:   23000000 cycles:    9029793 heartbeat IPC: 2.58707 cumulative IPC: 2.54712 (Simulation time: 0 hr 3 min 21 sec) 
Heartbeat CPU  0 instructions:   23000000 cycles:    9076345 heartbeat IPC: 2.42148 cumulative IPC: 2.53406 (Simulation time: 0 hr 3 min 22 sec) 
Heartbeat CPU  3 instructions:   23000000 cycles:    9308155 heartbeat IPC: 2.54435 cumulative IPC: 2.47095 (Simulation time: 0 hr 3 min 27 sec) 
Heartbeat CPU  2 instructions:   24000000 cycles:    9365812 heartbeat IPC: 2.43271 cumulative IPC: 2.56251 (Simulation time: 0 hr 3 min 28 sec) 
Heartbeat CPU  1 instructions:   24000000 cycles:    9417272 heartbeat IPC: 2.58079 cumulative IPC: 2.54851 (Simulation time: 0 hr 3 min 29 sec) 
Heartbeat CPU  0 instructions:   24000000 cycles:    9507366 heartbeat IPC: 2.32007 cumulative IPC: 2.52436 (Simulation time: 0 hr 3 min 31 sec) 
Heartbeat CPU  3 instructions:   24000000 cycles:    9703176 heartbeat IPC: 2.53151 cumulative IPC: 2.47342 (Simulation time: 0 hr 3 min 36 sec) 
Heartbeat CPU  2 instructions:   25000000 cycles:    9774992 heartbeat IPC: 2.44391 cumulative IPC: 2.55755 (Simulation time: 0 hr 3 min 37 sec) 
Heartbeat CPU  1 instructions:   25000003 cycles:    9802157 heartbeat IPC: 2.59819 cumulative IPC: 2.55046 (Simulation time: 0 hr 3 min 38 sec) 
Heartbeat CPU  0 instructions:   25000001 cycles:    9957927 heartbeat IPC: 2.21946 cumulative IPC: 2.51056 (Simulation time: 0 hr 3 min 42 sec) 
Heartbeat CPU  3 instructions:   25000001 cycles:   10097859 heartbeat IPC: 2.53368 cumulative IPC: 2.47577 (Simulation time: 0 hr 3 min 45 sec) 
Heartbeat CPU  1 instructions:   26000003 cycles:   10186056 heartbeat IPC: 2.60485 cumulative IPC: 2.55251 (Simulation time: 0 hr 3 min 47 sec) 
Heartbeat CPU  2 instructions:   26000001 cycles:   10188878 heartbeat IPC: 2.41613 cumulative IPC: 2.55180 (Simulation time: 0 hr 3 min 47 sec) 
Heartbeat CPU  0 instructions:   26000002 cycles:   10379052 heartbeat IPC: 2.37459 cumulative IPC: 2.50505 (Simulation time: 0 hr 3 min 51 sec) 
Heartbeat CPU  3 instructions:   26000003 cycles:   10490900 heartbeat IPC: 2.54427 cumulative IPC: 2.47834 (Simulation time: 0 hr 3 min 52 sec) 
Heartbeat CPU  1 instructions:   27000002 cycles:   10579404 heartbeat IPC: 2.54228 cumulative IPC: 2.55213 (Simulation time: 0 hr 3 min 54 sec) 
Heartbeat CPU  2 instructions:   27000002 cycles:   10865681 heartbeat IPC: 1.47754 cumulative IPC: 2.48489 (Simulation time: 0 hr 4 min 0 sec) 
Heartbeat CPU  3 instructions:   27000003 cycles:   10885847 heartbeat IPC: 2.53199 cumulative IPC: 2.48028 (Simulation time: 0 hr 4 min 1 sec) 
Heartbeat CPU  0 instructions:   27000002 cycles:   10900010 heartbeat IPC: 1.91954 cumulative IPC: 2.47706 (Simulation time: 0 hr 4 min 1 sec) 
Heartbeat CPU  1 instructions:   28000000 cycles:   10965918 heartbeat IPC: 2.58722 cumulative IPC: 2.55337 (Simulation time: 0 hr 4 min 2 sec) 
Heartbeat CPU  2 instructions:   28000000 cycles:   11254163 heartbeat IPC: 2.57412 cumulative IPC: 2.48797 (Simulation time: 0 hr 4 min 9 sec) 
Heartbeat CPU  3 instructions:   28000000 cycles:   11281004 heartbeat IPC: 2.53063 cumulative IPC: 2.48205 (Simulation time: 0 hr 4 min 10 sec) 
Heartbeat CPU  0 instructions:   28000000 cycles:   11296437 heartbeat IPC: 2.52253 cumulative IPC: 2.47866 (Simulation time: 0 hr 4 min 10 sec) 
Heartbeat CPU  1 instructions:   29000003 cycles:   11349921 heartbeat IPC: 2.60415 cumulative IPC: 2.55508 (Simulation time: 0 hr 4 min 12 sec) 
Heartbeat CPU  2 instructions:   29000003 cycles:   11635328 heartbeat IPC: 2.62354 cumulative IPC: 2.49241 (Simulation time: 0 hr 4 min 18 sec) 
Heartbeat CPU  3 instructions:   29000002 cycles:   11673620 heartbeat IPC: 2.54702 cumulative IPC: 2.48423 (Simulation time: 0 hr 4 min 19 sec) 
Heartbeat CPU  0 instructions:   29000003 cycles:   11684425 heartbeat IPC: 2.57741 cumulative IPC: 2.48194 (Simulation time: 0 hr 4 min 20 sec) 
Heartbeat CPU  1 instructions:   30000000 cycles:   11735595 heartbeat IPC: 2.59286 cumulative IPC: 2.55633 (Simulation time: 0 hr 4 min 21 sec) 
Heartbeat CPU  2 instructions:   30000001 cycles:   12020649 heartbeat IPC: 2.59523 cumulative IPC: 2.49571 (Simulation time: 0 hr 4 min 28 sec) 
Heartbeat CPU  3 instructions:   30000001 cycles:   12066683 heartbeat IPC: 2.54412 cumulative IPC: 2.48618 (Simulation time: 0 hr 4 min 29 sec) 
Heartbeat CPU  0 instructions:   30000000 cycles:   12076375 heartbeat IPC: 2.55134 cumulative IPC: 2.48419 (Simulation time: 0 hr 4 min 29 sec) 
Heartbeat CPU  1 instructions:   31000002 cycles:   12123162 heartbeat IPC: 2.58020 cumulative IPC: 2.55709 (Simulation time: 0 hr 4 min 30 sec) 
Heartbeat CPU  2 instructions:   31000000 cycles:   12402455 heartbeat IPC: 2.61913 cumulative IPC: 2.49951 (Simulation time: 0 hr 4 min 37 sec) 
Heartbeat CPU  0 instructions:   31000003 cycles:   12461410 heartbeat IPC: 2.59717 cumulative IPC: 2.48768 (Simulation time: 0 hr 4 min 38 sec) 
Heartbeat CPU  3 instructions:   31000002 cycles:   12461901 heartbeat IPC: 2.53025 cumulative IPC: 2.48758 (Simulation time: 0 hr 4 min 38 sec) 
Heartbeat CPU  1 instructions:   32000000 cycles:   12511225 heartbeat IPC: 2.57690 cumulative IPC: 2.55770 (Simulation time: 0 hr 4 min 39 sec) 
Heartbeat CPU  2 instructions:   32000000 cycles:   12785354 heartbeat IPC: 2.61165 cumulative IPC: 2.50286 (Simulation time: 0 hr 4 min 46 sec) 
Heartbeat CPU  0 instructions:   32000000 cycles:   12853132 heartbeat IPC: 2.55282 cumulative IPC: 2.48967 (Simulation time: 0 hr 4 min 48 sec) 
Heartbeat CPU  3 instructions:   32000000 cycles:   12855496 heartbeat IPC: 2.54068 cumulative IPC: 2.48921 (Simulation time: 0 hr 4 min 48 sec) 
Heartbeat CPU  1 instructions:   33000002 cycles:   12899214 heartbeat IPC: 2.57740 cumulative IPC: 2.55830 (Simulation time: 0 hr 4 min 49 sec) 
Heartbeat CPU  2 instructions:   33000003 cycles:   13169371 heartbeat IPC: 2.60406 cumulative IPC: 2.50581 (Simulation time: 0 hr 4 min 54 sec) 
Heartbeat CPU  0 instructions:   33000001 cycles:   13238855 heartbeat IPC: 2.59254 cumulative IPC: 2.49266 (Simulation time: 0 hr 4 min 55 sec) 
Heartbeat CPU  3 instructions:   33000000 cycles:   13249440 heartbeat IPC: 2.53843 cumulative IPC: 2.49067 (Simulation time: 0 hr 4 min 55 sec) 
Heartbeat CPU  1 instructions:   34000001 cycles:   13285862 heartbeat IPC: 2.58633 cumulative IPC: 2.55911 (Simulation time: 0 hr 4 min 56 sec) 
Heartbeat CPU  2 instructions:   34000003 cycles:   13552140 heartbeat IPC: 2.61254 cumulative IPC: 2.50883 (Simulation time: 0 hr 5 min 0 sec) 
Heartbeat CPU  3 instructions:   34000003 cycles:   13642571 heartbeat IPC: 2.54369 cumulative IPC: 2.49220 (Simulation time: 0 hr 5 min 2 sec) 
Heartbeat CPU  0 instructions:   34000002 cycles:   13644522 heartbeat IPC: 2.46508 cumulative IPC: 2.49184 (Simulation time: 0 hr 5 min 2 sec) 
Heartbeat CPU  1 instructions:   35000002 cycles:   13674845 heartbeat IPC: 2.57081 cumulative IPC: 2.55944 (Simulation time: 0 hr 5 min 2 sec) 
Heartbeat CPU  2 instructions:   35000002 cycles:   13937679 heartbeat IPC: 2.59377 cumulative IPC: 2.51118 (Simulation time: 0 hr 5 min 7 sec) 
Heartbeat CPU  3 instructions:   35000003 cycles:   14032350 heartbeat IPC: 2.56556 cumulative IPC: 2.49424 (Simulation time: 0 hr 5 min 9 sec) 
Heartbeat CPU  0 instructions:   35000000 cycles:   14036658 heartbeat IPC: 2.55013 cumulative IPC: 2.49347 (Simulation time: 0 hr 5 min 9 sec) 
Heartbeat CPU  1 instructions:   36000000 cycles:   14062533 heartbeat IPC: 2.57939 cumulative IPC: 2.55999 (Simulation time: 0 hr 5 min 9 sec) 
Heartbeat CPU  2 instructions:   36000000 cycles:   14322190 heartbeat IPC: 2.60070 cumulative IPC: 2.51358 (Simulation time: 0 hr 5 min 13 sec) 
Heartbeat CPU  0 instructions:   36000000 cycles:   14420418 heartbeat IPC: 2.60580 cumulative IPC: 2.49646 (Simulation time: 0 hr 5 min 15 sec) 
Heartbeat CPU  3 instructions:   36000000 cycles:   14425726 heartbeat IPC: 2.54209 cumulative IPC: 2.49554 (Simulation time: 0 hr 5 min 15 sec) 
Heartbeat CPU  1 instructions:   37000000 cycles:   14448601 heartbeat IPC: 2.59022 cumulative IPC: 2.56080 (Simulation time: 0 hr 5 min 16 sec) 
Heartbeat CPU  2 instructions:   37000001 cycles:   14706185 heartbeat IPC: 2.60420 cumulative IPC: 2.51595 (Simulation time: 0 hr 5 min 20 sec) 
Heartbeat CPU  0 instructions:   37000001 cycles:   14803787 heartbeat IPC: 2.60846 cumulative IPC: 2.49936 (Simulation time: 0 hr 5 min 22 sec) 
Heartbeat CPU  3 instructions:   37000001 cycles:   14820446 heartbeat IPC: 2.53344 cumulative IPC: 2.49655 (Simulation time: 0 hr 5 min 22 sec) 
Heartbeat CPU  1 instructions:   38000001 cycles:   14863265 heartbeat IPC: 2.41159 cumulative IPC: 2.55664 (Simulation time: 0 hr 5 min 23 sec) 
Heartbeat CPU  2 instructions:   38000001 cycles:   15093097 heartbeat IPC: 2.58457 cumulative IPC: 2.51771 (Simulation time: 0 hr 5 min 26 sec) 
Heartbeat CPU  0 instructions:   38000001 cycles:   15191291 heartbeat IPC: 2.58062 cumulative IPC: 2.50143 (Simulation time: 0 hr 5 min 28 sec) 
Heartbeat CPU  3 instructions:   38000000 cycles:   15215420 heartbeat IPC: 2.53181 cumulative IPC: 2.49747 (Simulation time: 0 hr 5 min 28 sec) 
Heartbeat CPU  1 instructions:   39000000 cycles:   15294784 heartbeat IPC: 2.31739 cumulative IPC: 2.54989 (Simulation time: 0 hr 5 min 30 sec) 
Heartbeat CPU  2 instructions:   39000000 cycles:   15475543 heartbeat IPC: 2.61475 cumulative IPC: 2.52011 (Simulation time: 0 hr 5 min 33 sec) 
Heartbeat CPU  0 instructions:   39000002 cycles:   15577572 heartbeat IPC: 2.58879 cumulative IPC: 2.50360 (Simulation time: 0 hr 5 min 34 sec) 
Heartbeat CPU  3 instructions:   39000002 cycles:   15610738 heartbeat IPC: 2.52961 cumulative IPC: 2.49828 (Simulation time: 0 hr 5 min 35 sec) 
Heartbeat CPU  1 instructions:   40000000 cycles:   15695148 heartbeat IPC: 2.49773 cumulative IPC: 2.54856 (Simulation time: 0 hr 5 min 36 sec) 
Heartbeat CPU  2 instructions:   40000000 cycles:   15860017 heartbeat IPC: 2.60096 cumulative IPC: 2.52207 (Simulation time: 0 hr 5 min 39 sec) 
Heartbeat CPU  0 instructions:   40000000 cycles:   15957230 heartbeat IPC: 2.63394 cumulative IPC: 2.50670 (Simulation time: 0 hr 5 min 41 sec) 
Heartbeat CPU  3 instructions:   40000000 cycles:   16007521 heartbeat IPC: 2.52026 cumulative IPC: 2.49883 (Simulation time: 0 hr 5 min 42 sec) 
Heartbeat CPU  1 instructions:   41000002 cycles:   16075440 heartbeat IPC: 2.62956 cumulative IPC: 2.55047 (Simulation time: 0 hr 5 min 43 sec) 
Heartbeat CPU  2 instructions:   41000002 cycles:   16243369 heartbeat IPC: 2.60857 cumulative IPC: 2.52411 (Simulation time: 0 hr 5 min 46 sec) 
Heartbeat CPU  0 instructions:   41000003 cycles:   16341280 heartbeat IPC: 2.60384 cumulative IPC: 2.50898 (Simulation time: 0 hr 5 min 48 sec) 
Heartbeat CPU  3 instructions:   41000001 cycles:   16399903 heartbeat IPC: 2.54854 cumulative IPC: 2.50001 (Simulation time: 0 hr 5 min 49 sec) 
Heartbeat CPU  1 instructions:   42000001 cycles:   16467418 heartbeat IPC: 2.55116 cumulative IPC: 2.55049 (Simulation time: 0 hr 5 min 50 sec) 
Heartbeat CPU  2 instructions:   42000001 cycles:   16628845 heartbeat IPC: 2.59419 cumulative IPC: 2.52573 (Simulation time: 0 hr 5 min 54 sec) 
Heartbeat CPU  0 instructions:   42000002 cycles:   16786031 heartbeat IPC: 2.24845 cumulative IPC: 2.50208 (Simulation time: 0 hr 5 min 57 sec) 
Heartbeat CPU  3 instructions:   42000001 cycles:   16792311 heartbeat IPC: 2.54837 cumulative IPC: 2.50114 (Simulation time: 0 hr 5 min 57 sec) 
Heartbeat CPU  1 instructions:   43000001 cycles:   16881966 heartbeat IPC: 2.41227 cumulative IPC: 2.54710 (Simulation time: 0 hr 5 min 58 sec) 
Heartbeat CPU  2 instructions:   43000003 cycles:   17010376 heartbeat IPC: 2.62102 cumulative IPC: 2.52787 (Simulation time: 0 hr 6 min 0 sec) 
Heartbeat CPU  0 instructions:   43000000 cycles:   17169485 heartbeat IPC: 2.60787 cumulative IPC: 2.50444 (Simulation time: 0 hr 6 min 3 sec) 
Heartbeat CPU  3 instructions:   43000000 cycles:   17186585 heartbeat IPC: 2.53630 cumulative IPC: 2.50195 (Simulation time: 0 hr 6 min 3 sec) 
Heartbeat CPU  1 instructions:   44000000 cycles:   17265329 heartbeat IPC: 2.60849 cumulative IPC: 2.54846 (Simulation time: 0 hr 6 min 4 sec) 
Heartbeat CPU  2 instructions:   44000000 cycles:   17398933 heartbeat IPC: 2.57362 cumulative IPC: 2.52889 (Simulation time: 0 hr 6 min 6 sec) 
Heartbeat CPU  0 instructions:   44000000 cycles:   17552917 heartbeat IPC: 2.60802 cumulative IPC: 2.50671 (Simulation time: 0 hr 6 min 9 sec) 
Heartbeat CPU  3 instructions:   44000000 cycles:   17582888 heartbeat IPC: 2.52332 cumulative IPC: 2.50243 (Simulation time: 0 hr 6 min 9 sec) 
Heartbeat CPU  1 instructions:   45000000 cycles:   17652104 heartbeat IPC: 2.58548 cumulative IPC: 2.54927 (Simulation time: 0 hr 6 min 10 sec) 
Heartbeat CPU  2 instructions:   45000002 cycles:   17792983 heartbeat IPC: 2.53775 cumulative IPC: 2.52909 (Simulation time: 0 hr 6 min 13 sec) 
Heartbeat CPU  0 instructions:   45000000 cycles:   17936019 heartbeat IPC: 2.61027 cumulative IPC: 2.50892 (Simulation time: 0 hr 6 min 15 sec) 
Heartbeat CPU  3 instructions:   45000003 cycles:   17978122 heartbeat IPC: 2.53015 cumulative IPC: 2.50304 (Simulation time: 0 hr 6 min 16 sec) 
Heartbeat CPU  1 instructions:   46000000 cycles:   18039687 heartbeat IPC: 2.58009 cumulative IPC: 2.54993 (Simulation time: 0 hr 6 min 17 sec) 
Heartbeat CPU  2 instructions:   46000003 cycles:   18236530 heartbeat IPC: 2.25455 cumulative IPC: 2.52241 (Simulation time: 0 hr 6 min 20 sec) 
Heartbeat CPU  0 instructions:   46000002 cycles:   18321016 heartbeat IPC: 2.59743 cumulative IPC: 2.51078 (Simulation time: 0 hr 6 min 21 sec) 
Heartbeat CPU  3 instructions:   46000001 cycles:   18368391 heartbeat IPC: 2.56233 cumulative IPC: 2.50430 (Simulation time: 0 hr 6 min 22 sec) 
Heartbeat CPU  1 instructions:   47000000 cycles:   18440037 heartbeat IPC: 2.49781 cumulative IPC: 2.54880 (Simulation time: 0 hr 6 min 23 sec) 
*** Reached end of trace for Core: 1 Repeating trace: /data3/CLOUD9/traces/cloud9_phase5_core1.trace.xz
Heartbeat CPU  2 instructions:   47000001 cycles:   18691804 heartbeat IPC: 2.19648 cumulative IPC: 2.51447 (Simulation time: 0 hr 6 min 26 sec) 
Heartbeat CPU  0 instructions:   47000001 cycles:   18712143 heartbeat IPC: 2.55671 cumulative IPC: 2.51174 (Simulation time: 0 hr 6 min 27 sec) 
*** Reached end of trace for Core: 2 Repeating trace: /data3/CLOUD9/traces/cloud9_phase5_core2.trace.xz
*** Reached end of trace for Core: 0 Repeating trace: /data3/CLOUD9/traces/cloud9_phase5_core0.trace.xz
Heartbeat CPU  3 instructions:   47000001 cycles:   18768381 heartbeat IPC: 2.50006 cumulative IPC: 2.50421 (Simulation time: 0 hr 6 min 28 sec) 
*** Reached end of trace for Core: 3 Repeating trace: /data3/CLOUD9/traces/cloud9_phase5_core3.trace.xz
Heartbeat CPU  1 instructions:   48000000 cycles:   18834091 heartbeat IPC: 2.53772 cumulative IPC: 2.54857 (Simulation time: 0 hr 6 min 28 sec) 
Heartbeat CPU  2 instructions:   48000000 cycles:   19094452 heartbeat IPC: 2.48356 cumulative IPC: 2.51382 (Simulation time: 0 hr 6 min 32 sec) 
Heartbeat CPU  0 instructions:   48000000 cycles:   19141928 heartbeat IPC: 2.32674 cumulative IPC: 2.50758 (Simulation time: 0 hr 6 min 33 sec) 
Heartbeat CPU  3 instructions:   48000000 cycles:   19181006 heartbeat IPC: 2.42351 cumulative IPC: 2.50248 (Simulation time: 0 hr 6 min 34 sec) 
Heartbeat CPU  1 instructions:   49000003 cycles:   19229862 heartbeat IPC: 2.52672 cumulative IPC: 2.54812 (Simulation time: 0 hr 6 min 34 sec) 
Heartbeat CPU  2 instructions:   49000002 cycles:   19475872 heartbeat IPC: 2.62179 cumulative IPC: 2.51593 (Simulation time: 0 hr 6 min 38 sec) 
Heartbeat CPU  0 instructions:   49000001 cycles:   19538023 heartbeat IPC: 2.52465 cumulative IPC: 2.50793 (Simulation time: 0 hr 6 min 39 sec) 
Heartbeat CPU  3 instructions:   49000000 cycles:   19624737 heartbeat IPC: 2.25362 cumulative IPC: 2.49685 (Simulation time: 0 hr 6 min 40 sec) 
Heartbeat CPU  1 instructions:   50000000 cycles:   19626377 heartbeat IPC: 2.52197 cumulative IPC: 2.54759 (Simulation time: 0 hr 6 min 40 sec) 
Heartbeat CPU  2 instructions:   50000000 cycles:   19859426 heartbeat IPC: 2.60719 cumulative IPC: 2.51770 (Simulation time: 0 hr 6 min 44 sec) 
Heartbeat CPU  0 instructions:   50000000 cycles:   19934752 heartbeat IPC: 2.52061 cumulative IPC: 2.50818 (Simulation time: 0 hr 6 min 45 sec) 
Heartbeat CPU  1 instructions:   51000000 cycles:   20021674 heartbeat IPC: 2.52974 cumulative IPC: 0.04995 (Simulation time: 0 hr 6 min 46 sec) 
Heartbeat CPU  3 instructions:   50000000 cycles:   20073971 heartbeat IPC: 2.22601 cumulative IPC: 2.49079 (Simulation time: 0 hr 6 min 47 sec) 

Warmup complete CPU  0 instructions:   50349898 cycles:   20073971 (Simulation time: 0 hr 6 min 47 sec) 
Warmup complete CPU  1 instructions:   51132164 cycles:   20073972 (Simulation time: 0 hr 6 min 47 sec) 
Warmup complete CPU  2 instructions:   50560982 cycles:   20073972 (Simulation time: 0 hr 6 min 47 sec) 
Warmup complete CPU  3 instructions:   50000004 cycles:   20073972 (Simulation time: 0 hr 6 min 47 sec) 

Heartbeat CPU  2 instructions:   51000000 cycles:   23192761 heartbeat IPC: 0.30000 cumulative IPC: 0.14077 (Simulation time: 0 hr 6 min 51 sec) 
Heartbeat CPU  0 instructions:   51000000 cycles:   23600936 heartbeat IPC: 0.27276 cumulative IPC: 0.18432 (Simulation time: 0 hr 6 min 52 sec) 
Heartbeat CPU  1 instructions:   52000000 cycles:   26017017 heartbeat IPC: 0.16680 cumulative IPC: 0.14603 (Simulation time: 0 hr 6 min 55 sec) 
Heartbeat CPU  3 instructions:   51000000 cycles:   29016019 heartbeat IPC: 0.11183 cumulative IPC: 0.11183 (Simulation time: 0 hr 7 min 0 sec) 
Heartbeat CPU  0 instructions:   52000000 cycles:   29123994 heartbeat IPC: 0.18106 cumulative IPC: 0.18233 (Simulation time: 0 hr 7 min 0 sec) 
Heartbeat CPU  2 instructions:   52000000 cycles:   30147423 heartbeat IPC: 0.14379 cumulative IPC: 0.14285 (Simulation time: 0 hr 7 min 1 sec) 
Heartbeat CPU  1 instructions:   53000003 cycles:   32885253 heartbeat IPC: 0.14560 cumulative IPC: 0.14580 (Simulation time: 0 hr 7 min 5 sec) 
Heartbeat CPU  0 instructions:   53000002 cycles:   35103869 heartbeat IPC: 0.16723 cumulative IPC: 0.17632 (Simulation time: 0 hr 7 min 9 sec) 
Heartbeat CPU  3 instructions:   52000000 cycles:   35841492 heartbeat IPC: 0.14651 cumulative IPC: 0.12684 (Simulation time: 0 hr 7 min 10 sec) 
Heartbeat CPU  2 instructions:   53000003 cycles:   37242799 heartbeat IPC: 0.14094 cumulative IPC: 0.14206 (Simulation time: 0 hr 7 min 12 sec) 
Heartbeat CPU  1 instructions:   54000000 cycles:   39763630 heartbeat IPC: 0.14538 cumulative IPC: 0.14565 (Simulation time: 0 hr 7 min 15 sec) 
Heartbeat CPU  0 instructions:   54000001 cycles:   40598383 heartbeat IPC: 0.18200 cumulative IPC: 0.17784 (Simulation time: 0 hr 7 min 17 sec) 
Heartbeat CPU  3 instructions:   53000000 cycles:   42766552 heartbeat IPC: 0.14440 cumulative IPC: 0.13220 (Simulation time: 0 hr 7 min 20 sec) 
Heartbeat CPU  2 instructions:   54000000 cycles:   44426396 heartbeat IPC: 0.13921 cumulative IPC: 0.14122 (Simulation time: 0 hr 7 min 22 sec) 
Heartbeat CPU  0 instructions:   55000000 cycles:   45898331 heartbeat IPC: 0.18868 cumulative IPC: 0.18007 (Simulation time: 0 hr 7 min 24 sec) 
Heartbeat CPU  1 instructions:   55000003 cycles:   46602301 heartbeat IPC: 0.14623 cumulative IPC: 0.14580 (Simulation time: 0 hr 7 min 25 sec) 
Heartbeat CPU  3 instructions:   54000002 cycles:   49933345 heartbeat IPC: 0.13953 cumulative IPC: 0.13396 (Simulation time: 0 hr 7 min 30 sec) 
Heartbeat CPU  2 instructions:   55000001 cycles:   51573344 heartbeat IPC: 0.13992 cumulative IPC: 0.14092 (Simulation time: 0 hr 7 min 32 sec) 
Heartbeat CPU  0 instructions:   56000000 cycles:   51960832 heartbeat IPC: 0.16495 cumulative IPC: 0.17719 (Simulation time: 0 hr 7 min 33 sec) 
Heartbeat CPU  1 instructions:   56000000 cycles:   53502126 heartbeat IPC: 0.14493 cumulative IPC: 0.14562 (Simulation time: 0 hr 7 min 35 sec) 
Heartbeat CPU  3 instructions:   55000002 cycles:   57243010 heartbeat IPC: 0.13681 cumulative IPC: 0.13452 (Simulation time: 0 hr 7 min 40 sec) 
Heartbeat CPU  0 instructions:   57000002 cycles:   57656977 heartbeat IPC: 0.17556 cumulative IPC: 0.17694 (Simulation time: 0 hr 7 min 41 sec) 
Heartbeat CPU  2 instructions:   56000000 cycles:   58652397 heartbeat IPC: 0.14126 cumulative IPC: 0.14099 (Simulation time: 0 hr 7 min 43 sec) 
Heartbeat CPU  1 instructions:   57000001 cycles:   60385338 heartbeat IPC: 0.14528 cumulative IPC: 0.14556 (Simulation time: 0 hr 7 min 45 sec) 
Heartbeat CPU  0 instructions:   58000001 cycles:   62908329 heartbeat IPC: 0.19043 cumulative IPC: 0.17860 (Simulation time: 0 hr 7 min 49 sec) 
Heartbeat CPU  3 instructions:   56000000 cycles:   64576843 heartbeat IPC: 0.13635 cumulative IPC: 0.13482 (Simulation time: 0 hr 7 min 51 sec) 
Heartbeat CPU  2 instructions:   57000001 cycles:   65708923 heartbeat IPC: 0.14171 cumulative IPC: 0.14110 (Simulation time: 0 hr 7 min 53 sec) 
Heartbeat CPU  1 instructions:   58000003 cycles:   67270162 heartbeat IPC: 0.14525 cumulative IPC: 0.14552 (Simulation time: 0 hr 7 min 55 sec) 
Heartbeat CPU  0 instructions:   59000003 cycles:   68745641 heartbeat IPC: 0.17131 cumulative IPC: 0.17772 (Simulation time: 0 hr 7 min 57 sec) 
Heartbeat CPU  3 instructions:   57000001 cycles:   71907680 heartbeat IPC: 0.13641 cumulative IPC: 0.13505 (Simulation time: 0 hr 8 min 2 sec) 
Heartbeat CPU  2 instructions:   58000002 cycles:   72705356 heartbeat IPC: 0.14293 cumulative IPC: 0.14134 (Simulation time: 0 hr 8 min 3 sec) 
Heartbeat CPU  0 instructions:   60000000 cycles:   74185629 heartbeat IPC: 0.18382 cumulative IPC: 0.17834 (Simulation time: 0 hr 8 min 5 sec) 
Heartbeat CPU  1 instructions:   59000002 cycles:   74187332 heartbeat IPC: 0.14457 cumulative IPC: 0.14540 (Simulation time: 0 hr 8 min 5 sec) 
Heartbeat CPU  3 instructions:   58000000 cycles:   79238865 heartbeat IPC: 0.13640 cumulative IPC: 0.13522 (Simulation time: 0 hr 8 min 12 sec) 
Heartbeat CPU  2 instructions:   59000001 cycles:   79815823 heartbeat IPC: 0.14064 cumulative IPC: 0.14126 (Simulation time: 0 hr 8 min 13 sec) 
Heartbeat CPU  0 instructions:   61000001 cycles:   80138571 heartbeat IPC: 0.16798 cumulative IPC: 0.17731 (Simulation time: 0 hr 8 min 14 sec) 
Heartbeat CPU  1 instructions:   60000000 cycles:   80942312 heartbeat IPC: 0.14804 cumulative IPC: 0.14569 (Simulation time: 0 hr 8 min 15 sec) 
Heartbeat CPU  0 instructions:   62000000 cycles:   85920326 heartbeat IPC: 0.17296 cumulative IPC: 0.17693 (Simulation time: 0 hr 8 min 22 sec) 
Heartbeat CPU  3 instructions:   59000001 cycles:   86523895 heartbeat IPC: 0.13727 cumulative IPC: 0.13544 (Simulation time: 0 hr 8 min 23 sec) 
Heartbeat CPU  2 instructions:   60000000 cycles:   86891665 heartbeat IPC: 0.14133 cumulative IPC: 0.14127 (Simulation time: 0 hr 8 min 23 sec) 
Heartbeat CPU  1 instructions:   61000001 cycles:   87614083 heartbeat IPC: 0.14989 cumulative IPC: 0.14610 (Simulation time: 0 hr 8 min 24 sec) 
Heartbeat CPU  0 instructions:   63000000 cycles:   91503375 heartbeat IPC: 0.17911 cumulative IPC: 0.17710 (Simulation time: 0 hr 8 min 30 sec) 
Heartbeat CPU  3 instructions:   60000000 cycles:   93769692 heartbeat IPC: 0.13801 cumulative IPC: 0.13569 (Simulation time: 0 hr 8 min 33 sec) 
Heartbeat CPU  2 instructions:   61000003 cycles:   94024763 heartbeat IPC: 0.14019 cumulative IPC: 0.14116 (Simulation time: 0 hr 8 min 34 sec) 
Heartbeat CPU  1 instructions:   62000000 cycles:   94240713 heartbeat IPC: 0.15091 cumulative IPC: 0.14653 (Simulation time: 0 hr 8 min 34 sec) 
Heartbeat CPU  0 instructions:   64000000 cycles:   96956457 heartbeat IPC: 0.18338 cumulative IPC: 0.17755 (Simulation time: 0 hr 8 min 38 sec) 
Heartbeat CPU  1 instructions:   63000003 cycles:  100848141 heartbeat IPC: 0.15135 cumulative IPC: 0.14693 (Simulation time: 0 hr 8 min 44 sec) 
Heartbeat CPU  3 instructions:   61000002 cycles:  101025719 heartbeat IPC: 0.13782 cumulative IPC: 0.13588 (Simulation time: 0 hr 8 min 44 sec) 
Heartbeat CPU  2 instructions:   62000002 cycles:  101116046 heartbeat IPC: 0.14102 cumulative IPC: 0.14115 (Simulation time: 0 hr 8 min 44 sec) 
Heartbeat CPU  0 instructions:   65000002 cycles:  102937263 heartbeat IPC: 0.16720 cumulative IPC: 0.17680 (Simulation time: 0 hr 8 min 47 sec) 
Heartbeat CPU  1 instructions:   64000000 cycles:  107457111 heartbeat IPC: 0.15131 cumulative IPC: 0.14726 (Simulation time: 0 hr 8 min 53 sec) 
Heartbeat CPU  3 instructions:   62000003 cycles:  108268350 heartbeat IPC: 0.13807 cumulative IPC: 0.13606 (Simulation time: 0 hr 8 min 54 sec) 
Heartbeat CPU  2 instructions:   63000000 cycles:  108294256 heartbeat IPC: 0.13931 cumulative IPC: 0.14100 (Simulation time: 0 hr 8 min 55 sec) 
Heartbeat CPU  0 instructions:   66000000 cycles:  108822096 heartbeat IPC: 0.16993 cumulative IPC: 0.17634 (Simulation time: 0 hr 8 min 55 sec) 
Heartbeat CPU  1 instructions:   65000000 cycles:  114125327 heartbeat IPC: 0.14997 cumulative IPC: 0.14745 (Simulation time: 0 hr 9 min 3 sec) 
Heartbeat CPU  0 instructions:   67000000 cycles:  114623816 heartbeat IPC: 0.17236 cumulative IPC: 0.17610 (Simulation time: 0 hr 9 min 4 sec) 
Heartbeat CPU  2 instructions:   64000000 cycles:  115424412 heartbeat IPC: 0.14025 cumulative IPC: 0.14094 (Simulation time: 0 hr 9 min 5 sec) 
Heartbeat CPU  3 instructions:   63000003 cycles:  115551242 heartbeat IPC: 0.13731 cumulative IPC: 0.13616 (Simulation time: 0 hr 9 min 5 sec) 
Heartbeat CPU  0 instructions:   68000000 cycles:  120029118 heartbeat IPC: 0.18500 cumulative IPC: 0.17658 (Simulation time: 0 hr 9 min 12 sec) 
Heartbeat CPU  1 instructions:   66000002 cycles:  120790378 heartbeat IPC: 0.15004 cumulative IPC: 0.14762 (Simulation time: 0 hr 9 min 13 sec) 
Heartbeat CPU  2 instructions:   65000003 cycles:  122470388 heartbeat IPC: 0.14193 cumulative IPC: 0.14101 (Simulation time: 0 hr 9 min 15 sec) 
Heartbeat CPU  3 instructions:   64000000 cycles:  122803844 heartbeat IPC: 0.13788 cumulative IPC: 0.13628 (Simulation time: 0 hr 9 min 16 sec) 
Heartbeat CPU  0 instructions:   69000003 cycles:  126460034 heartbeat IPC: 0.15550 cumulative IPC: 0.17531 (Simulation time: 0 hr 9 min 21 sec) 
Heartbeat CPU  1 instructions:   67000001 cycles:  127411993 heartbeat IPC: 0.15102 cumulative IPC: 0.14783 (Simulation time: 0 hr 9 min 22 sec) 
Heartbeat CPU  2 instructions:   66000002 cycles:  129654921 heartbeat IPC: 0.13919 cumulative IPC: 0.14089 (Simulation time: 0 hr 9 min 25 sec) 
Heartbeat CPU  3 instructions:   65000001 cycles:  130046592 heartbeat IPC: 0.13807 cumulative IPC: 0.13640 (Simulation time: 0 hr 9 min 26 sec) 
Heartbeat CPU  0 instructions:   70000002 cycles:  133868420 heartbeat IPC: 0.13498 cumulative IPC: 0.17268 (Simulation time: 0 hr 9 min 31 sec) 
Heartbeat CPU  1 instructions:   68000000 cycles:  134058448 heartbeat IPC: 0.15046 cumulative IPC: 0.14798 (Simulation time: 0 hr 9 min 31 sec) 
Heartbeat CPU  2 instructions:   67000000 cycles:  136736355 heartbeat IPC: 0.14121 cumulative IPC: 0.14091 (Simulation time: 0 hr 9 min 35 sec) 
Heartbeat CPU  3 instructions:   66000002 cycles:  137291837 heartbeat IPC: 0.13802 cumulative IPC: 0.13650 (Simulation time: 0 hr 9 min 36 sec) 
Heartbeat CPU  1 instructions:   69000001 cycles:  140722696 heartbeat IPC: 0.15005 cumulative IPC: 0.14810 (Simulation time: 0 hr 9 min 41 sec) 
Heartbeat CPU  0 instructions:   71000001 cycles:  141635034 heartbeat IPC: 0.12876 cumulative IPC: 0.16987 (Simulation time: 0 hr 9 min 42 sec) 
Heartbeat CPU  2 instructions:   68000000 cycles:  143962882 heartbeat IPC: 0.13838 cumulative IPC: 0.14076 (Simulation time: 0 hr 9 min 45 sec) 
Heartbeat CPU  3 instructions:   67000000 cycles:  144538772 heartbeat IPC: 0.13799 cumulative IPC: 0.13658 (Simulation time: 0 hr 9 min 46 sec) 
Heartbeat CPU  1 instructions:   70000000 cycles:  147329449 heartbeat IPC: 0.15136 cumulative IPC: 0.14827 (Simulation time: 0 hr 9 min 50 sec) 
Heartbeat CPU  0 instructions:   72000000 cycles:  149365532 heartbeat IPC: 0.12936 cumulative IPC: 0.16745 (Simulation time: 0 hr 9 min 53 sec) 
Heartbeat CPU  2 instructions:   69000000 cycles:  151058321 heartbeat IPC: 0.14094 cumulative IPC: 0.14077 (Simulation time: 0 hr 9 min 55 sec) 
Heartbeat CPU  3 instructions:   68000000 cycles:  151775078 heartbeat IPC: 0.13819 cumulative IPC: 0.13667 (Simulation time: 0 hr 9 min 56 sec) 
Heartbeat CPU  1 instructions:   71000002 cycles:  153958709 heartbeat IPC: 0.15085 cumulative IPC: 0.14840 (Simulation time: 0 hr 9 min 59 sec) 
Heartbeat CPU  0 instructions:   73000001 cycles:  157294945 heartbeat IPC: 0.12611 cumulative IPC: 0.16506 (Simulation time: 0 hr 10 min 5 sec) 
Heartbeat CPU  2 instructions:   70000002 cycles:  157370978 heartbeat IPC: 0.15841 cumulative IPC: 0.14158 (Simulation time: 0 hr 10 min 5 sec) 
Heartbeat CPU  3 instructions:   69000003 cycles:  159040069 heartbeat IPC: 0.13765 cumulative IPC: 0.13672 (Simulation time: 0 hr 10 min 8 sec) 
Heartbeat CPU  1 instructions:   72000000 cycles:  160632779 heartbeat IPC: 0.14983 cumulative IPC: 0.14846 (Simulation time: 0 hr 10 min 10 sec) 
Heartbeat CPU  2 instructions:   71000003 cycles:  163091227 heartbeat IPC: 0.17482 cumulative IPC: 0.14291 (Simulation time: 0 hr 10 min 15 sec) 
Heartbeat CPU  0 instructions:   74000000 cycles:  164909541 heartbeat IPC: 0.13133 cumulative IPC: 0.16329 (Simulation time: 0 hr 10 min 18 sec) 
Heartbeat CPU  3 instructions:   70000000 cycles:  166352019 heartbeat IPC: 0.13676 cumulative IPC: 0.13673 (Simulation time: 0 hr 10 min 20 sec) 
Heartbeat CPU  1 instructions:   73000000 cycles:  167297964 heartbeat IPC: 0.15003 cumulative IPC: 0.14853 (Simulation time: 0 hr 10 min 22 sec) 
Heartbeat CPU  2 instructions:   72000000 cycles:  168526777 heartbeat IPC: 0.18397 cumulative IPC: 0.14442 (Simulation time: 0 hr 10 min 24 sec) 
Heartbeat CPU  0 instructions:   75000001 cycles:  171878730 heartbeat IPC: 0.14349 cumulative IPC: 0.16238 (Simulation time: 0 hr 10 min 29 sec) 
Heartbeat CPU  3 instructions:   71000001 cycles:  173657711 heartbeat IPC: 0.13688 cumulative IPC: 0.13673 (Simulation time: 0 hr 10 min 32 sec) 
Heartbeat CPU  1 instructions:   74000001 cycles:  173977431 heartbeat IPC: 0.14971 cumulative IPC: 0.14859 (Simulation time: 0 hr 10 min 33 sec) 
Heartbeat CPU  2 instructions:   73000001 cycles:  174809477 heartbeat IPC: 0.15917 cumulative IPC: 0.14502 (Simulation time: 0 hr 10 min 34 sec) 
Heartbeat CPU  0 instructions:   76000000 cycles:  178866744 heartbeat IPC: 0.14310 cumulative IPC: 0.16153 (Simulation time: 0 hr 10 min 40 sec) 
Heartbeat CPU  1 instructions:   75000003 cycles:  180646689 heartbeat IPC: 0.14994 cumulative IPC: 0.14864 (Simulation time: 0 hr 10 min 43 sec) 
Heartbeat CPU  3 instructions:   72000000 cycles:  180972096 heartbeat IPC: 0.13672 cumulative IPC: 0.13673 (Simulation time: 0 hr 10 min 43 sec) 
Heartbeat CPU  2 instructions:   74000002 cycles:  182871444 heartbeat IPC: 0.12404 cumulative IPC: 0.14398 (Simulation time: 0 hr 10 min 46 sec) 
Heartbeat CPU  0 instructions:   77000003 cycles:  185878443 heartbeat IPC: 0.14262 cumulative IPC: 0.16073 (Simulation time: 0 hr 10 min 50 sec) 
Heartbeat CPU  1 instructions:   76000000 cycles:  187264317 heartbeat IPC: 0.15111 cumulative IPC: 0.14874 (Simulation time: 0 hr 10 min 52 sec) 
Heartbeat CPU  3 instructions:   73000000 cycles:  188368258 heartbeat IPC: 0.13521 cumulative IPC: 0.13667 (Simulation time: 0 hr 10 min 54 sec) 
Heartbeat CPU  2 instructions:   75000000 cycles:  190058585 heartbeat IPC: 0.13914 cumulative IPC: 0.14377 (Simulation time: 0 hr 10 min 56 sec) 
Heartbeat CPU  0 instructions:   78000001 cycles:  192852222 heartbeat IPC: 0.14339 cumulative IPC: 0.16003 (Simulation time: 0 hr 11 min 0 sec) 
Heartbeat CPU  1 instructions:   77000000 cycles:  193873833 heartbeat IPC: 0.15130 cumulative IPC: 0.14884 (Simulation time: 0 hr 11 min 1 sec) 
Heartbeat CPU  3 instructions:   74000000 cycles:  195704794 heartbeat IPC: 0.13630 cumulative IPC: 0.13665 (Simulation time: 0 hr 11 min 4 sec) 
Heartbeat CPU  2 instructions:   76000000 cycles:  196950371 heartbeat IPC: 0.14510 cumulative IPC: 0.14382 (Simulation time: 0 hr 11 min 6 sec) 
Heartbeat CPU  0 instructions:   79000001 cycles:  199928139 heartbeat IPC: 0.14132 cumulative IPC: 0.15930 (Simulation time: 0 hr 11 min 10 sec) 
Heartbeat CPU  1 instructions:   78000002 cycles:  200481674 heartbeat IPC: 0.15134 cumulative IPC: 0.14893 (Simulation time: 0 hr 11 min 11 sec) 
Heartbeat CPU  3 instructions:   75000002 cycles:  203044159 heartbeat IPC: 0.13625 cumulative IPC: 0.13663 (Simulation time: 0 hr 11 min 14 sec) 
Heartbeat CPU  2 instructions:   77000000 cycles:  204022896 heartbeat IPC: 0.14139 cumulative IPC: 0.14373 (Simulation time: 0 hr 11 min 16 sec) 
Heartbeat CPU  0 instructions:   80000000 cycles:  206923522 heartbeat IPC: 0.14295 cumulative IPC: 0.15868 (Simulation time: 0 hr 11 min 20 sec) 
Heartbeat CPU  1 instructions:   79000003 cycles:  207091127 heartbeat IPC: 0.15130 cumulative IPC: 0.14901 (Simulation time: 0 hr 11 min 20 sec) 
Heartbeat CPU  3 instructions:   76000000 cycles:  210378373 heartbeat IPC: 0.13635 cumulative IPC: 0.13662 (Simulation time: 0 hr 11 min 25 sec) 
Heartbeat CPU  2 instructions:   78000001 cycles:  211153626 heartbeat IPC: 0.14024 cumulative IPC: 0.14360 (Simulation time: 0 hr 11 min 26 sec) 
Heartbeat CPU  1 instructions:   80000000 cycles:  213705470 heartbeat IPC: 0.15119 cumulative IPC: 0.14909 (Simulation time: 0 hr 11 min 29 sec) 
Heartbeat CPU  0 instructions:   81000002 cycles:  213904550 heartbeat IPC: 0.14325 cumulative IPC: 0.15813 (Simulation time: 0 hr 11 min 30 sec) 
Heartbeat CPU  3 instructions:   77000002 cycles:  217670310 heartbeat IPC: 0.13714 cumulative IPC: 0.13664 (Simulation time: 0 hr 11 min 35 sec) 
Heartbeat CPU  2 instructions:   79000000 cycles:  218236406 heartbeat IPC: 0.14119 cumulative IPC: 0.14351 (Simulation time: 0 hr 11 min 36 sec) 
Heartbeat CPU  1 instructions:   81000000 cycles:  220321468 heartbeat IPC: 0.15115 cumulative IPC: 0.14915 (Simulation time: 0 hr 11 min 39 sec) 
Heartbeat CPU  0 instructions:   82000000 cycles:  220935878 heartbeat IPC: 0.14222 cumulative IPC: 0.15757 (Simulation time: 0 hr 11 min 39 sec) 
Heartbeat CPU  3 instructions:   78000000 cycles:  225070864 heartbeat IPC: 0.13512 cumulative IPC: 0.13659 (Simulation time: 0 hr 11 min 45 sec) 
Heartbeat CPU  2 instructions:   80000000 cycles:  225314417 heartbeat IPC: 0.14128 cumulative IPC: 0.14344 (Simulation time: 0 hr 11 min 46 sec) 
Heartbeat CPU  1 instructions:   82000001 cycles:  226989258 heartbeat IPC: 0.14997 cumulative IPC: 0.14918 (Simulation time: 0 hr 11 min 48 sec) 
Heartbeat CPU  0 instructions:   83000002 cycles:  227916230 heartbeat IPC: 0.14326 cumulative IPC: 0.15709 (Simulation time: 0 hr 11 min 49 sec) 
Heartbeat CPU  3 instructions:   79000002 cycles:  232418412 heartbeat IPC: 0.13610 cumulative IPC: 0.13657 (Simulation time: 0 hr 11 min 56 sec) 
Heartbeat CPU  2 instructions:   81000000 cycles:  232463190 heartbeat IPC: 0.13988 cumulative IPC: 0.14332 (Simulation time: 0 hr 11 min 56 sec) 
Heartbeat CPU  1 instructions:   83000002 cycles:  233604856 heartbeat IPC: 0.15116 cumulative IPC: 0.14924 (Simulation time: 0 hr 11 min 57 sec) 
Heartbeat CPU  0 instructions:   84000000 cycles:  234920383 heartbeat IPC: 0.14277 cumulative IPC: 0.15662 (Simulation time: 0 hr 11 min 59 sec) 
Heartbeat CPU  2 instructions:   82000002 cycles:  239570094 heartbeat IPC: 0.14071 cumulative IPC: 0.14323 (Simulation time: 0 hr 12 min 6 sec) 
Heartbeat CPU  3 instructions:   80000000 cycles:  239766618 heartbeat IPC: 0.13609 cumulative IPC: 0.13655 (Simulation time: 0 hr 12 min 6 sec) 
Heartbeat CPU  1 instructions:   84000000 cycles:  240243571 heartbeat IPC: 0.15063 cumulative IPC: 0.14928 (Simulation time: 0 hr 12 min 7 sec) 
Heartbeat CPU  0 instructions:   85000003 cycles:  241946279 heartbeat IPC: 0.14233 cumulative IPC: 0.15617 (Simulation time: 0 hr 12 min 9 sec) 
Heartbeat CPU  2 instructions:   83000001 cycles:  246648074 heartbeat IPC: 0.14128 cumulative IPC: 0.14317 (Simulation time: 0 hr 12 min 16 sec) 
Heartbeat CPU  1 instructions:   85000000 cycles:  246928966 heartbeat IPC: 0.14958 cumulative IPC: 0.14929 (Simulation time: 0 hr 12 min 16 sec) 
Heartbeat CPU  3 instructions:   81000000 cycles:  247152430 heartbeat IPC: 0.13539 cumulative IPC: 0.13652 (Simulation time: 0 hr 12 min 16 sec) 
Heartbeat CPU  0 instructions:   86000001 cycles:  248972489 heartbeat IPC: 0.14232 cumulative IPC: 0.15575 (Simulation time: 0 hr 12 min 19 sec) 
Heartbeat CPU  2 instructions:   84000000 cycles:  253849631 heartbeat IPC: 0.13886 cumulative IPC: 0.14304 (Simulation time: 0 hr 12 min 25 sec) 
Heartbeat CPU  3 instructions:   82000002 cycles:  254096688 heartbeat IPC: 0.14400 cumulative IPC: 0.13674 (Simulation time: 0 hr 12 min 26 sec) 
Heartbeat CPU  1 instructions:   86000002 cycles:  254194189 heartbeat IPC: 0.13764 cumulative IPC: 0.14893 (Simulation time: 0 hr 12 min 26 sec) 
Heartbeat CPU  0 instructions:   87000003 cycles:  255930415 heartbeat IPC: 0.14372 cumulative IPC: 0.15539 (Simulation time: 0 hr 12 min 28 sec) 
Heartbeat CPU  3 instructions:   83000003 cycles:  260744844 heartbeat IPC: 0.15042 cumulative IPC: 0.13712 (Simulation time: 0 hr 12 min 35 sec) 
Heartbeat CPU  2 instructions:   85000003 cycles:  260938369 heartbeat IPC: 0.14107 cumulative IPC: 0.14298 (Simulation time: 0 hr 12 min 35 sec) 
Heartbeat CPU  1 instructions:   87000002 cycles:  261629134 heartbeat IPC: 0.13450 cumulative IPC: 0.14849 (Simulation time: 0 hr 12 min 36 sec) 
Heartbeat CPU  0 instructions:   88000000 cycles:  263006800 heartbeat IPC: 0.14131 cumulative IPC: 0.15498 (Simulation time: 0 hr 12 min 38 sec) 
Heartbeat CPU  3 instructions:   84000000 cycles:  267370679 heartbeat IPC: 0.15092 cumulative IPC: 0.13749 (Simulation time: 0 hr 12 min 44 sec) 
Heartbeat CPU  2 instructions:   86000001 cycles:  268056964 heartbeat IPC: 0.14048 cumulative IPC: 0.14291 (Simulation time: 0 hr 12 min 45 sec) 
Heartbeat CPU  1 instructions:   88000000 cycles:  269044080 heartbeat IPC: 0.13486 cumulative IPC: 0.14808 (Simulation time: 0 hr 12 min 47 sec) 
Heartbeat CPU  0 instructions:   89000003 cycles:  270284771 heartbeat IPC: 0.13740 cumulative IPC: 0.15447 (Simulation time: 0 hr 12 min 48 sec) 
Heartbeat CPU  3 instructions:   85000001 cycles:  274000790 heartbeat IPC: 0.15083 cumulative IPC: 0.13783 (Simulation time: 0 hr 12 min 53 sec) 
Heartbeat CPU  2 instructions:   87000000 cycles:  275160058 heartbeat IPC: 0.14078 cumulative IPC: 0.14285 (Simulation time: 0 hr 12 min 55 sec) 
Heartbeat CPU  1 instructions:   89000001 cycles:  276548538 heartbeat IPC: 0.13325 cumulative IPC: 0.14765 (Simulation time: 0 hr 12 min 57 sec) 
Heartbeat CPU  0 instructions:   90000001 cycles:  277317032 heartbeat IPC: 0.14220 cumulative IPC: 0.15413 (Simulation time: 0 hr 12 min 58 sec) 
Heartbeat CPU  3 instructions:   86000003 cycles:  280641811 heartbeat IPC: 0.15058 cumulative IPC: 0.13816 (Simulation time: 0 hr 13 min 3 sec) 
Heartbeat CPU  2 instructions:   88000000 cycles:  282266821 heartbeat IPC: 0.14071 cumulative IPC: 0.14279 (Simulation time: 0 hr 13 min 5 sec) 
Heartbeat CPU  1 instructions:   90000003 cycles:  283743915 heartbeat IPC: 0.13898 cumulative IPC: 0.14741 (Simulation time: 0 hr 13 min 7 sec) 
Heartbeat CPU  0 instructions:   91000002 cycles:  284292212 heartbeat IPC: 0.14337 cumulative IPC: 0.15385 (Simulation time: 0 hr 13 min 8 sec) 
Heartbeat CPU  3 instructions:   87000001 cycles:  287291249 heartbeat IPC: 0.15039 cumulative IPC: 0.13846 (Simulation time: 0 hr 13 min 12 sec) 
Heartbeat CPU  2 instructions:   89000000 cycles:  289339284 heartbeat IPC: 0.14139 cumulative IPC: 0.14276 (Simulation time: 0 hr 13 min 15 sec) 
Heartbeat CPU  1 instructions:   91000000 cycles:  291213309 heartbeat IPC: 0.13388 cumulative IPC: 0.14704 (Simulation time: 0 hr 13 min 17 sec) 
Heartbeat CPU  0 instructions:   92000000 cycles:  291350395 heartbeat IPC: 0.14168 cumulative IPC: 0.15353 (Simulation time: 0 hr 13 min 18 sec) 
Heartbeat CPU  3 instructions:   88000000 cycles:  293954479 heartbeat IPC: 0.15008 cumulative IPC: 0.13875 (Simulation time: 0 hr 13 min 21 sec) 
Heartbeat CPU  2 instructions:   90000000 cycles:  296469735 heartbeat IPC: 0.14024 cumulative IPC: 0.14269 (Simulation time: 0 hr 13 min 25 sec) 
Heartbeat CPU  1 instructions:   92000000 cycles:  298349113 heartbeat IPC: 0.14014 cumulative IPC: 0.14686 (Simulation time: 0 hr 13 min 28 sec) 
Heartbeat CPU  0 instructions:   93000000 cycles:  298429912 heartbeat IPC: 0.14125 cumulative IPC: 0.15322 (Simulation time: 0 hr 13 min 28 sec) 
Heartbeat CPU  3 instructions:   89000003 cycles:  300587392 heartbeat IPC: 0.15076 cumulative IPC: 0.13903 (Simulation time: 0 hr 13 min 31 sec) 
Heartbeat CPU  2 instructions:   91000000 cycles:  303579503 heartbeat IPC: 0.14065 cumulative IPC: 0.14264 (Simulation time: 0 hr 13 min 35 sec) 
Heartbeat CPU  0 instructions:   94000003 cycles:  305540208 heartbeat IPC: 0.14064 cumulative IPC: 0.15291 (Simulation time: 0 hr 13 min 38 sec) 
Heartbeat CPU  1 instructions:   93000002 cycles:  305805300 heartbeat IPC: 0.13412 cumulative IPC: 0.14653 (Simulation time: 0 hr 13 min 38 sec) 
Heartbeat CPU  3 instructions:   90000002 cycles:  307235455 heartbeat IPC: 0.15042 cumulative IPC: 0.13929 (Simulation time: 0 hr 13 min 40 sec) 
*** Reached end of trace for Core: 0 Repeating trace: /data3/CLOUD9/traces/cloud9_phase5_core0.trace.xz
Heartbeat CPU  2 instructions:   92000000 cycles:  310718595 heartbeat IPC: 0.14007 cumulative IPC: 0.14258 (Simulation time: 0 hr 13 min 45 sec) 
Heartbeat CPU  0 instructions:   95000002 cycles:  311460291 heartbeat IPC: 0.16892 cumulative IPC: 0.15323 (Simulation time: 0 hr 13 min 46 sec) 
Heartbeat CPU  1 instructions:   94000003 cycles:  313007662 heartbeat IPC: 0.13884 cumulative IPC: 0.14634 (Simulation time: 0 hr 13 min 49 sec) 
Heartbeat CPU  3 instructions:   91000003 cycles:  313925485 heartbeat IPC: 0.14948 cumulative IPC: 0.13953 (Simulation time: 0 hr 13 min 50 sec) 
*** Reached end of trace for Core: 1 Repeating trace: /data3/CLOUD9/traces/cloud9_phase5_core1.trace.xz
Heartbeat CPU  2 instructions:   93000000 cycles:  316518916 heartbeat IPC: 0.17240 cumulative IPC: 0.14316 (Simulation time: 0 hr 13 min 54 sec) 
Heartbeat CPU  0 instructions:   96000000 cycles:  317452170 heartbeat IPC: 0.16689 cumulative IPC: 0.15351 (Simulation time: 0 hr 13 min 55 sec) 
Heartbeat CPU  1 instructions:   95000003 cycles:  320012981 heartbeat IPC: 0.14275 cumulative IPC: 0.14626 (Simulation time: 0 hr 14 min 0 sec) 
Heartbeat CPU  3 instructions:   92000000 cycles:  320584021 heartbeat IPC: 0.15018 cumulative IPC: 0.13976 (Simulation time: 0 hr 14 min 0 sec) 
Heartbeat CPU  2 instructions:   94000003 cycles:  322482707 heartbeat IPC: 0.16768 cumulative IPC: 0.14364 (Simulation time: 0 hr 14 min 3 sec) 
Heartbeat CPU  0 instructions:   97000001 cycles:  323389928 heartbeat IPC: 0.16841 cumulative IPC: 0.15380 (Simulation time: 0 hr 14 min 5 sec) 
*** Reached end of trace for Core: 2 Repeating trace: /data3/CLOUD9/traces/cloud9_phase5_core2.trace.xz
Heartbeat CPU  1 instructions:   96000000 cycles:  326869609 heartbeat IPC: 0.14584 cumulative IPC: 0.14625 (Simulation time: 0 hr 14 min 10 sec) 
Heartbeat CPU  3 instructions:   93000000 cycles:  327238098 heartbeat IPC: 0.15028 cumulative IPC: 0.13999 (Simulation time: 0 hr 14 min 11 sec) 
Heartbeat CPU  0 instructions:   98000000 cycles:  328938646 heartbeat IPC: 0.18022 cumulative IPC: 0.15428 (Simulation time: 0 hr 14 min 13 sec) 
Heartbeat CPU  2 instructions:   95000003 cycles:  329358223 heartbeat IPC: 0.14544 cumulative IPC: 0.14368 (Simulation time: 0 hr 14 min 14 sec) 
Heartbeat CPU  1 instructions:   97000001 cycles:  333735310 heartbeat IPC: 0.14565 cumulative IPC: 0.14623 (Simulation time: 0 hr 14 min 20 sec) 
Heartbeat CPU  3 instructions:   94000000 cycles:  333901043 heartbeat IPC: 0.15008 cumulative IPC: 0.14020 (Simulation time: 0 hr 14 min 21 sec) 
Heartbeat CPU  0 instructions:   99000000 cycles:  334295772 heartbeat IPC: 0.18667 cumulative IPC: 0.15483 (Simulation time: 0 hr 14 min 21 sec) 
*** Reached end of trace for Core: 3 Repeating trace: /data3/CLOUD9/traces/cloud9_phase5_core3.trace.xz
Heartbeat CPU  2 instructions:   96000000 cycles:  336480278 heartbeat IPC: 0.14041 cumulative IPC: 0.14361 (Simulation time: 0 hr 14 min 24 sec) 
Heartbeat CPU  3 instructions:   95000001 cycles:  339737407 heartbeat IPC: 0.17134 cumulative IPC: 0.14077 (Simulation time: 0 hr 14 min 30 sec) 
Heartbeat CPU  0 instructions:  100000000 cycles:  340349431 heartbeat IPC: 0.16519 cumulative IPC: 0.15502 (Simulation time: 0 hr 14 min 31 sec) 
Heartbeat CPU  1 instructions:   98000000 cycles:  340607251 heartbeat IPC: 0.14552 cumulative IPC: 0.14622 (Simulation time: 0 hr 14 min 31 sec) 
Heartbeat CPU  2 instructions:   97000001 cycles:  343605105 heartbeat IPC: 0.14035 cumulative IPC: 0.14354 (Simulation time: 0 hr 14 min 36 sec) 
Heartbeat CPU  3 instructions:   96000000 cycles:  345132939 heartbeat IPC: 0.18534 cumulative IPC: 0.14151 (Simulation time: 0 hr 14 min 38 sec) 
Heartbeat CPU  0 instructions:  101000000 cycles:  345850163 heartbeat IPC: 0.18179 cumulative IPC: 0.15548 (Simulation time: 0 hr 14 min 39 sec) 
Heartbeat CPU  1 instructions:   99000002 cycles:  347444161 heartbeat IPC: 0.14627 cumulative IPC: 0.14622 (Simulation time: 0 hr 14 min 42 sec) 
Heartbeat CPU  3 instructions:   97000001 cycles:  350494365 heartbeat IPC: 0.18652 cumulative IPC: 0.14224 (Simulation time: 0 hr 14 min 47 sec) 
Heartbeat CPU  2 instructions:   98000002 cycles:  350714535 heartbeat IPC: 0.14066 cumulative IPC: 0.14348 (Simulation time: 0 hr 14 min 47 sec) 
Heartbeat CPU  0 instructions:  102000003 cycles:  351070543 heartbeat IPC: 0.19156 cumulative IPC: 0.15604 (Simulation time: 0 hr 14 min 48 sec) 
Heartbeat CPU  1 instructions:  100000000 cycles:  354298839 heartbeat IPC: 0.14589 cumulative IPC: 0.14621 (Simulation time: 0 hr 14 min 53 sec) 
Heartbeat CPU  0 instructions:  103000000 cycles:  357163021 heartbeat IPC: 0.16414 cumulative IPC: 0.15619 (Simulation time: 0 hr 14 min 57 sec) 
Heartbeat CPU  2 instructions:   99000001 cycles:  357648389 heartbeat IPC: 0.14422 cumulative IPC: 0.14349 (Simulation time: 0 hr 14 min 57 sec) 
Heartbeat CPU  3 instructions:   98000002 cycles:  359188481 heartbeat IPC: 0.11502 cumulative IPC: 0.14155 (Simulation time: 0 hr 14 min 59 sec) 
Heartbeat CPU  1 instructions:  101000000 cycles:  361172604 heartbeat IPC: 0.14548 cumulative IPC: 0.14620 (Simulation time: 0 hr 15 min 2 sec) 
Heartbeat CPU  0 instructions:  104000000 cycles:  362878542 heartbeat IPC: 0.17496 cumulative IPC: 0.15650 (Simulation time: 0 hr 15 min 5 sec) 
Heartbeat CPU  2 instructions:  100000000 cycles:  364746469 heartbeat IPC: 0.14088 cumulative IPC: 0.14344 (Simulation time: 0 hr 15 min 8 sec) 
Heartbeat CPU  3 instructions:   99000000 cycles:  366088754 heartbeat IPC: 0.14492 cumulative IPC: 0.14161 (Simulation time: 0 hr 15 min 10 sec) 
Heartbeat CPU  1 instructions:  102000000 cycles:  368006444 heartbeat IPC: 0.14633 cumulative IPC: 0.14620 (Simulation time: 0 hr 15 min 13 sec) 
Heartbeat CPU  0 instructions:  105000000 cycles:  368022342 heartbeat IPC: 0.19441 cumulative IPC: 0.15706 (Simulation time: 0 hr 15 min 13 sec) 
Heartbeat CPU  2 instructions:  101000001 cycles:  371926093 heartbeat IPC: 0.13928 cumulative IPC: 0.14335 (Simulation time: 0 hr 15 min 18 sec) 
Heartbeat CPU  3 instructions:  100000000 cycles:  372969902 heartbeat IPC: 0.14532 cumulative IPC: 0.14168 (Simulation time: 0 hr 15 min 20 sec) 
Heartbeat CPU  0 instructions:  106000001 cycles:  373939448 heartbeat IPC: 0.16900 cumulative IPC: 0.15726 (Simulation time: 0 hr 15 min 21 sec) 
Heartbeat CPU  1 instructions:  103000002 cycles:  374889182 heartbeat IPC: 0.14529 cumulative IPC: 0.14618 (Simulation time: 0 hr 15 min 22 sec) 
Heartbeat CPU  2 instructions:  102000000 cycles:  379058997 heartbeat IPC: 0.14020 cumulative IPC: 0.14329 (Simulation time: 0 hr 15 min 28 sec) 
Heartbeat CPU  0 instructions:  107000000 cycles:  379347093 heartbeat IPC: 0.18492 cumulative IPC: 0.15768 (Simulation time: 0 hr 15 min 29 sec) 
Heartbeat CPU  3 instructions:  101000000 cycles:  380077698 heartbeat IPC: 0.14069 cumulative IPC: 0.14167 (Simulation time: 0 hr 15 min 30 sec) 
Heartbeat CPU  1 instructions:  104000000 cycles:  381764663 heartbeat IPC: 0.14544 cumulative IPC: 0.14617 (Simulation time: 0 hr 15 min 32 sec) 
Heartbeat CPU  0 instructions:  108000000 cycles:  385236988 heartbeat IPC: 0.16978 cumulative IPC: 0.15787 (Simulation time: 0 hr 15 min 37 sec) 
Heartbeat CPU  2 instructions:  103000000 cycles:  386127002 heartbeat IPC: 0.14148 cumulative IPC: 0.14326 (Simulation time: 0 hr 15 min 39 sec) 
Heartbeat CPU  3 instructions:  102000002 cycles:  387381671 heartbeat IPC: 0.13691 cumulative IPC: 0.14157 (Simulation time: 0 hr 15 min 40 sec) 
Heartbeat CPU  1 instructions:  105000000 cycles:  388639894 heartbeat IPC: 0.14545 cumulative IPC: 0.14616 (Simulation time: 0 hr 15 min 42 sec) 
Heartbeat CPU  0 instructions:  109000000 cycles:  391029494 heartbeat IPC: 0.17264 cumulative IPC: 0.15811 (Simulation time: 0 hr 15 min 46 sec) 
Heartbeat CPU  2 instructions:  104000000 cycles:  393218323 heartbeat IPC: 0.14102 cumulative IPC: 0.14321 (Simulation time: 0 hr 15 min 49 sec) 
Heartbeat CPU  3 instructions:  103000001 cycles:  394695118 heartbeat IPC: 0.13673 cumulative IPC: 0.14148 (Simulation time: 0 hr 15 min 51 sec) 
Heartbeat CPU  1 instructions:  106000000 cycles:  395538146 heartbeat IPC: 0.14496 cumulative IPC: 0.14613 (Simulation time: 0 hr 15 min 52 sec) 
Heartbeat CPU  0 instructions:  110000000 cycles:  396695565 heartbeat IPC: 0.17649 cumulative IPC: 0.15838 (Simulation time: 0 hr 15 min 54 sec) 
Heartbeat CPU  2 instructions:  105000000 cycles:  400226845 heartbeat IPC: 0.14268 cumulative IPC: 0.14320 (Simulation time: 0 hr 15 min 59 sec) 
Heartbeat CPU  3 instructions:  104000000 cycles:  402011101 heartbeat IPC: 0.13669 cumulative IPC: 0.14138 (Simulation time: 0 hr 16 min 2 sec) 
Heartbeat CPU  0 instructions:  111000001 cycles:  402070591 heartbeat IPC: 0.18605 cumulative IPC: 0.15877 (Simulation time: 0 hr 16 min 2 sec) 
Heartbeat CPU  1 instructions:  107000003 cycles:  402335923 heartbeat IPC: 0.14711 cumulative IPC: 0.14615 (Simulation time: 0 hr 16 min 2 sec) 
Heartbeat CPU  2 instructions:  106000001 cycles:  407281793 heartbeat IPC: 0.14174 cumulative IPC: 0.14318 (Simulation time: 0 hr 16 min 9 sec) 
Heartbeat CPU  0 instructions:  112000000 cycles:  408028648 heartbeat IPC: 0.16784 cumulative IPC: 0.15891 (Simulation time: 0 hr 16 min 11 sec) 
Heartbeat CPU  1 instructions:  108000000 cycles:  409006045 heartbeat IPC: 0.14992 cumulative IPC: 0.14622 (Simulation time: 0 hr 16 min 12 sec) 
Heartbeat CPU  3 instructions:  105000001 cycles:  409354146 heartbeat IPC: 0.13618 cumulative IPC: 0.14129 (Simulation time: 0 hr 16 min 12 sec) 
Heartbeat CPU  0 instructions:  113000003 cycles:  414005036 heartbeat IPC: 0.16733 cumulative IPC: 0.15904 (Simulation time: 0 hr 16 min 19 sec) 
Heartbeat CPU  2 instructions:  107000002 cycles:  414365131 heartbeat IPC: 0.14118 cumulative IPC: 0.14314 (Simulation time: 0 hr 16 min 20 sec) 
Heartbeat CPU  1 instructions:  109000000 cycles:  415610431 heartbeat IPC: 0.15141 cumulative IPC: 0.14630 (Simulation time: 0 hr 16 min 22 sec) 
Heartbeat CPU  3 instructions:  106000003 cycles:  416683521 heartbeat IPC: 0.13644 cumulative IPC: 0.14120 (Simulation time: 0 hr 16 min 23 sec) 
Heartbeat CPU  0 instructions:  114000000 cycles:  419790156 heartbeat IPC: 0.17286 cumulative IPC: 0.15924 (Simulation time: 0 hr 16 min 28 sec) 
Heartbeat CPU  2 instructions:  108000000 cycles:  421517225 heartbeat IPC: 0.13982 cumulative IPC: 0.14308 (Simulation time: 0 hr 16 min 30 sec) 
Heartbeat CPU  1 instructions:  110000003 cycles:  422223044 heartbeat IPC: 0.15123 cumulative IPC: 0.14638 (Simulation time: 0 hr 16 min 31 sec) 
Heartbeat CPU  3 instructions:  107000001 cycles:  423937687 heartbeat IPC: 0.13785 cumulative IPC: 0.14114 (Simulation time: 0 hr 16 min 34 sec) 
Heartbeat CPU  0 instructions:  115000002 cycles:  425195491 heartbeat IPC: 0.18500 cumulative IPC: 0.15958 (Simulation time: 0 hr 16 min 36 sec) 
Heartbeat CPU  2 instructions:  109000001 cycles:  428603256 heartbeat IPC: 0.14112 cumulative IPC: 0.14305 (Simulation time: 0 hr 16 min 41 sec) 
Heartbeat CPU  1 instructions:  111000002 cycles:  428824858 heartbeat IPC: 0.15147 cumulative IPC: 0.14647 (Simulation time: 0 hr 16 min 41 sec) 
Heartbeat CPU  3 instructions:  108000000 cycles:  431194309 heartbeat IPC: 0.13781 cumulative IPC: 0.14108 (Simulation time: 0 hr 16 min 44 sec) 
Heartbeat CPU  0 instructions:  116000000 cycles:  431378086 heartbeat IPC: 0.16174 cumulative IPC: 0.15961 (Simulation time: 0 hr 16 min 45 sec) 
Heartbeat CPU  1 instructions:  112000000 cycles:  435492714 heartbeat IPC: 0.14997 cumulative IPC: 0.14652 (Simulation time: 0 hr 16 min 51 sec) 
Heartbeat CPU  2 instructions:  110000003 cycles:  435775676 heartbeat IPC: 0.13942 cumulative IPC: 0.14298 (Simulation time: 0 hr 16 min 51 sec) 
Heartbeat CPU  3 instructions:  109000000 cycles:  438434593 heartbeat IPC: 0.13812 cumulative IPC: 0.14103 (Simulation time: 0 hr 16 min 55 sec) 
Heartbeat CPU  0 instructions:  117000003 cycles:  438725636 heartbeat IPC: 0.13610 cumulative IPC: 0.15920 (Simulation time: 0 hr 16 min 55 sec) 
Heartbeat CPU  1 instructions:  113000002 cycles:  442156495 heartbeat IPC: 0.15007 cumulative IPC: 0.14658 (Simulation time: 0 hr 17 min 0 sec) 
Heartbeat CPU  2 instructions:  111000000 cycles:  442885292 heartbeat IPC: 0.14065 cumulative IPC: 0.14295 (Simulation time: 0 hr 17 min 1 sec) 
Heartbeat CPU  3 instructions:  110000003 cycles:  445699159 heartbeat IPC: 0.13765 cumulative IPC: 0.14097 (Simulation time: 0 hr 17 min 5 sec) 
Heartbeat CPU  0 instructions:  118000001 cycles:  446467306 heartbeat IPC: 0.12917 cumulative IPC: 0.15866 (Simulation time: 0 hr 17 min 6 sec) 
Heartbeat CPU  1 instructions:  114000000 cycles:  448785567 heartbeat IPC: 0.15085 cumulative IPC: 0.14664 (Simulation time: 0 hr 17 min 9 sec) 
Heartbeat CPU  2 instructions:  112000000 cycles:  449928330 heartbeat IPC: 0.14198 cumulative IPC: 0.14293 (Simulation time: 0 hr 17 min 11 sec) 
Heartbeat CPU  3 instructions:  111000001 cycles:  452948898 heartbeat IPC: 0.13794 cumulative IPC: 0.14092 (Simulation time: 0 hr 17 min 15 sec) 
Heartbeat CPU  0 instructions:  119000001 cycles:  454223999 heartbeat IPC: 0.12892 cumulative IPC: 0.15813 (Simulation time: 0 hr 17 min 17 sec) 
Heartbeat CPU  1 instructions:  115000002 cycles:  455406188 heartbeat IPC: 0.15104 cumulative IPC: 0.14671 (Simulation time: 0 hr 17 min 19 sec) 
Heartbeat CPU  2 instructions:  113000001 cycles:  457120884 heartbeat IPC: 0.13903 cumulative IPC: 0.14287 (Simulation time: 0 hr 17 min 21 sec) 
Heartbeat CPU  3 instructions:  112000000 cycles:  460197257 heartbeat IPC: 0.13796 cumulative IPC: 0.14087 (Simulation time: 0 hr 17 min 26 sec) 
Heartbeat CPU  1 instructions:  116000000 cycles:  462079870 heartbeat IPC: 0.14984 cumulative IPC: 0.14676 (Simulation time: 0 hr 17 min 28 sec) 
Heartbeat CPU  0 instructions:  120000000 cycles:  462089275 heartbeat IPC: 0.12714 cumulative IPC: 0.15757 (Simulation time: 0 hr 17 min 28 sec) 
Heartbeat CPU  2 instructions:  114000001 cycles:  464178857 heartbeat IPC: 0.14168 cumulative IPC: 0.14285 (Simulation time: 0 hr 17 min 31 sec) 
Heartbeat CPU  3 instructions:  113000003 cycles:  467447936 heartbeat IPC: 0.13792 cumulative IPC: 0.14082 (Simulation time: 0 hr 17 min 36 sec) 
Heartbeat CPU  1 instructions:  117000001 cycles:  468679390 heartbeat IPC: 0.15153 cumulative IPC: 0.14683 (Simulation time: 0 hr 17 min 38 sec) 
Heartbeat CPU  0 instructions:  121000003 cycles:  469798008 heartbeat IPC: 0.12972 cumulative IPC: 0.15710 (Simulation time: 0 hr 17 min 39 sec) 
Heartbeat CPU  2 instructions:  115000001 cycles:  471375173 heartbeat IPC: 0.13896 cumulative IPC: 0.14278 (Simulation time: 0 hr 17 min 41 sec) 
Heartbeat CPU  3 instructions:  114000001 cycles:  474690244 heartbeat IPC: 0.13808 cumulative IPC: 0.14078 (Simulation time: 0 hr 17 min 46 sec) 
Heartbeat CPU  1 instructions:  118000003 cycles:  475323764 heartbeat IPC: 0.15050 cumulative IPC: 0.14688 (Simulation time: 0 hr 17 min 47 sec) 
Heartbeat CPU  0 instructions:  122000002 cycles:  476774953 heartbeat IPC: 0.14333 cumulative IPC: 0.15689 (Simulation time: 0 hr 17 min 49 sec) 
Heartbeat CPU  2 instructions:  116000000 cycles:  478507834 heartbeat IPC: 0.14020 cumulative IPC: 0.14274 (Simulation time: 0 hr 17 min 52 sec) 
Heartbeat CPU  3 instructions:  115000003 cycles:  481926615 heartbeat IPC: 0.13819 cumulative IPC: 0.14074 (Simulation time: 0 hr 17 min 57 sec) 
Heartbeat CPU  1 instructions:  119000002 cycles:  481976560 heartbeat IPC: 0.15031 cumulative IPC: 0.14693 (Simulation time: 0 hr 17 min 57 sec) 
Heartbeat CPU  0 instructions:  123000002 cycles:  483760163 heartbeat IPC: 0.14316 cumulative IPC: 0.15668 (Simulation time: 0 hr 18 min 0 sec) 
Heartbeat CPU  2 instructions:  117000000 cycles:  485062090 heartbeat IPC: 0.15257 cumulative IPC: 0.14288 (Simulation time: 0 hr 18 min 2 sec) 
Heartbeat CPU  1 instructions:  120000000 cycles:  488638140 heartbeat IPC: 0.15011 cumulative IPC: 0.14698 (Simulation time: 0 hr 18 min 8 sec) 
Heartbeat CPU  3 instructions:  116000000 cycles:  489203580 heartbeat IPC: 0.13742 cumulative IPC: 0.14069 (Simulation time: 0 hr 18 min 9 sec) 
Heartbeat CPU  2 instructions:  118000003 cycles:  490646575 heartbeat IPC: 0.17907 cumulative IPC: 0.14331 (Simulation time: 0 hr 18 min 12 sec) 
Heartbeat CPU  0 instructions:  124000000 cycles:  490760318 heartbeat IPC: 0.14285 cumulative IPC: 0.15647 (Simulation time: 0 hr 18 min 12 sec) 
Heartbeat CPU  1 instructions:  121000002 cycles:  495306985 heartbeat IPC: 0.14995 cumulative IPC: 0.14702 (Simulation time: 0 hr 18 min 20 sec) 
Heartbeat CPU  2 instructions:  119000000 cycles:  496176783 heartbeat IPC: 0.18082 cumulative IPC: 0.14375 (Simulation time: 0 hr 18 min 22 sec) 
Heartbeat CPU  3 instructions:  117000000 cycles:  496507637 heartbeat IPC: 0.13691 cumulative IPC: 0.14063 (Simulation time: 0 hr 18 min 22 sec) 
Heartbeat CPU  0 instructions:  125000000 cycles:  497717698 heartbeat IPC: 0.14373 cumulative IPC: 0.15629 (Simulation time: 0 hr 18 min 24 sec) 
Heartbeat CPU  1 instructions:  122000003 cycles:  501981368 heartbeat IPC: 0.14983 cumulative IPC: 0.14706 (Simulation time: 0 hr 18 min 32 sec) 
Heartbeat CPU  2 instructions:  120000000 cycles:  502402785 heartbeat IPC: 0.16062 cumulative IPC: 0.14397 (Simulation time: 0 hr 18 min 32 sec) 
Heartbeat CPU  3 instructions:  118000000 cycles:  503811961 heartbeat IPC: 0.13691 cumulative IPC: 0.14057 (Simulation time: 0 hr 18 min 35 sec) 
Heartbeat CPU  0 instructions:  126000001 cycles:  504805829 heartbeat IPC: 0.14108 cumulative IPC: 0.15607 (Simulation time: 0 hr 18 min 36 sec) 
Heartbeat CPU  1 instructions:  123000003 cycles:  508577496 heartbeat IPC: 0.15160 cumulative IPC: 0.14712 (Simulation time: 0 hr 18 min 41 sec) 
Heartbeat CPU  2 instructions:  121000003 cycles:  510166296 heartbeat IPC: 0.12881 cumulative IPC: 0.14373 (Simulation time: 0 hr 18 min 44 sec) 
Heartbeat CPU  3 instructions:  119000002 cycles:  511133280 heartbeat IPC: 0.13659 cumulative IPC: 0.14051 (Simulation time: 0 hr 18 min 45 sec) 
Heartbeat CPU  0 instructions:  127000001 cycles:  511806297 heartbeat IPC: 0.14285 cumulative IPC: 0.15588 (Simulation time: 0 hr 18 min 46 sec) 
Heartbeat CPU  1 instructions:  124000000 cycles:  515195320 heartbeat IPC: 0.15111 cumulative IPC: 0.14717 (Simulation time: 0 hr 18 min 51 sec) 
Heartbeat CPU  2 instructions:  122000002 cycles:  517319895 heartbeat IPC: 0.13979 cumulative IPC: 0.14367 (Simulation time: 0 hr 18 min 54 sec) 
Heartbeat CPU  3 instructions:  120000000 cycles:  518500699 heartbeat IPC: 0.13573 cumulative IPC: 0.14044 (Simulation time: 0 hr 18 min 56 sec) 
Heartbeat CPU  0 instructions:  128000000 cycles:  518792684 heartbeat IPC: 0.14314 cumulative IPC: 0.15570 (Simulation time: 0 hr 18 min 56 sec) 
Heartbeat CPU  1 instructions:  125000001 cycles:  521806501 heartbeat IPC: 0.15126 cumulative IPC: 0.14723 (Simulation time: 0 hr 19 min 0 sec) 
Heartbeat CPU  2 instructions:  123000002 cycles:  524248808 heartbeat IPC: 0.14432 cumulative IPC: 0.14368 (Simulation time: 0 hr 19 min 4 sec) 
Heartbeat CPU  0 instructions:  129000003 cycles:  525834170 heartbeat IPC: 0.14202 cumulative IPC: 0.15551 (Simulation time: 0 hr 19 min 6 sec) 
Heartbeat CPU  3 instructions:  121000003 cycles:  525841838 heartbeat IPC: 0.13622 cumulative IPC: 0.14038 (Simulation time: 0 hr 19 min 6 sec) 
Heartbeat CPU  1 instructions:  126000001 cycles:  528412255 heartbeat IPC: 0.15138 cumulative IPC: 0.14728 (Simulation time: 0 hr 19 min 10 sec) 
Heartbeat CPU  2 instructions:  124000000 cycles:  531323432 heartbeat IPC: 0.14135 cumulative IPC: 0.14365 (Simulation time: 0 hr 19 min 14 sec) 
Heartbeat CPU  0 instructions:  130000003 cycles:  532799171 heartbeat IPC: 0.14357 cumulative IPC: 0.15535 (Simulation time: 0 hr 19 min 16 sec) 
Heartbeat CPU  3 instructions:  122000000 cycles:  533177014 heartbeat IPC: 0.13633 cumulative IPC: 0.14032 (Simulation time: 0 hr 19 min 17 sec) 
Heartbeat CPU  1 instructions:  127000003 cycles:  535029433 heartbeat IPC: 0.15112 cumulative IPC: 0.14733 (Simulation time: 0 hr 19 min 19 sec) 
Heartbeat CPU  2 instructions:  125000003 cycles:  538440082 heartbeat IPC: 0.14052 cumulative IPC: 0.14360 (Simulation time: 0 hr 19 min 24 sec) 
Heartbeat CPU  0 instructions:  131000000 cycles:  539801507 heartbeat IPC: 0.14281 cumulative IPC: 0.15518 (Simulation time: 0 hr 19 min 26 sec) 
Heartbeat CPU  3 instructions:  123000000 cycles:  540501264 heartbeat IPC: 0.13653 cumulative IPC: 0.14027 (Simulation time: 0 hr 19 min 27 sec) 
Heartbeat CPU  1 instructions:  128000000 cycles:  541610534 heartbeat IPC: 0.15195 cumulative IPC: 0.14739 (Simulation time: 0 hr 19 min 29 sec) 
Heartbeat CPU  2 instructions:  126000001 cycles:  545520908 heartbeat IPC: 0.14123 cumulative IPC: 0.14357 (Simulation time: 0 hr 19 min 35 sec) 
Heartbeat CPU  0 instructions:  132000000 cycles:  546819126 heartbeat IPC: 0.14250 cumulative IPC: 0.15501 (Simulation time: 0 hr 19 min 36 sec) 
Heartbeat CPU  3 instructions:  124000000 cycles:  547795356 heartbeat IPC: 0.13710 cumulative IPC: 0.14023 (Simulation time: 0 hr 19 min 38 sec) 
Heartbeat CPU  1 instructions:  129000001 cycles:  548291169 heartbeat IPC: 0.14969 cumulative IPC: 0.14742 (Simulation time: 0 hr 19 min 39 sec) 
Heartbeat CPU  2 instructions:  127000002 cycles:  552608137 heartbeat IPC: 0.14110 cumulative IPC: 0.14354 (Simulation time: 0 hr 19 min 45 sec) 
Heartbeat CPU  0 instructions:  133000000 cycles:  553862216 heartbeat IPC: 0.14198 cumulative IPC: 0.15484 (Simulation time: 0 hr 19 min 46 sec) 
Heartbeat CPU  1 instructions:  130000001 cycles:  554906866 heartbeat IPC: 0.15116 cumulative IPC: 0.14746 (Simulation time: 0 hr 19 min 48 sec) 
Heartbeat CPU  3 instructions:  125000001 cycles:  555183048 heartbeat IPC: 0.13536 cumulative IPC: 0.14016 (Simulation time: 0 hr 19 min 48 sec) 
Heartbeat CPU  2 instructions:  128000000 cycles:  559750417 heartbeat IPC: 0.14001 cumulative IPC: 0.14349 (Simulation time: 0 hr 19 min 55 sec) 
Heartbeat CPU  0 instructions:  134000003 cycles:  560813741 heartbeat IPC: 0.14385 cumulative IPC: 0.15470 (Simulation time: 0 hr 19 min 56 sec) 
Heartbeat CPU  1 instructions:  131000003 cycles:  561548541 heartbeat IPC: 0.15056 cumulative IPC: 0.14750 (Simulation time: 0 hr 19 min 57 sec) 
Heartbeat CPU  3 instructions:  126000003 cycles:  562536335 heartbeat IPC: 0.13599 cumulative IPC: 0.14010 (Simulation time: 0 hr 19 min 59 sec) 
Heartbeat CPU  2 instructions:  129000000 cycles:  566860987 heartbeat IPC: 0.14064 cumulative IPC: 0.14345 (Simulation time: 0 hr 20 min 5 sec) 
Heartbeat CPU  0 instructions:  135000000 cycles:  567882032 heartbeat IPC: 0.14148 cumulative IPC: 0.15453 (Simulation time: 0 hr 20 min 6 sec) 
[...]
Core_0_L1I_acc_level_1 0
Core_0_L1I_acc_level_2 0
Core_0_L1I_acc_level_3 0
Core_0_L1I_acc_level_4 0
Core_0_L1I_acc_level_5 0
Core_0_L1I_acc_level_6 0
Core_0_L1I_acc_level_7 0
Core_0_L1I_acc_level_8 0
Core_0_L1I_acc_level_9 0

Core_0_L2C_total_access 1023120
Core_0_L2C_total_hit 748554
Core_0_L2C_total_miss 274566
Core_0_L2C_loads 539789
Core_0_L2C_load_hit 321261
Core_0_L2C_load_miss 218528
Core_0_L2C_RFOs 145165
Core_0_L2C_RFO_hit 89741
Core_0_L2C_RFO_miss 55424
Core_0_L2C_prefetches 0
Core_0_L2C_prefetch_hit 0
Core_0_L2C_prefetch_miss 0
Core_0_L2C_writebacks 338166
Core_0_L2C_writeback_hit 337552
Core_0_L2C_writeback_miss 614
Core_0_L2C_prefetch_requested 0
Core_0_L2C_prefetch_dropped 0
Core_0_L2C_prefetch_issued 0
Core_0_L2C_prefetch_filled 0
Core_0_L2C_prefetch_useful 0
Core_0_L2C_prefetch_useless 0
Core_0_L2C_prefetch_late 0
Core_0_L2C_average_miss_latency 176.71229

Core_0_L2C_rq_access 734024
Core_0_L2C_rq_forward 0
Core_0_L2C_rq_merged 0
Core_0_L2C_rq_to_cache 734008
Core_0_L2C_rq_full 0

Core_0_L2C_wq_access 367801
Core_0_L2C_wq_forward 16
Core_0_L2C_wq_merged 0
Core_0_L2C_wq_to_cache 367801
Core_0_L2C_wq_full 0

Core_0_L2C_pq_access 0
Core_0_L2C_pq_forward 0
Core_0_L2C_pq_merged 0
Core_0_L2C_pq_to_cache 0
Core_0_L2C_pq_full 0

Core_0_L2C_acc_epochs 171143
Core_0_L2C_acc_level_0 171143
Core_0_L2C_acc_level_1 0
Core_0_L2C_acc_level_2 0
Core_0_L2C_acc_level_3 0
Core_0_L2C_acc_level_4 0
Core_0_L2C_acc_level_5 0
Core_0_L2C_acc_level_6 0
Core_0_L2C_acc_level_7 0
Core_0_L2C_acc_level_8 0
Core_0_L2C_acc_level_9 0

Core_0_LLC_total_access 445001
Core_0_LLC_total_hit 262365
Core_0_LLC_total_miss 182636
Core_0_LLC_loads 218528
Core_0_LLC_load_hit 99520
Core_0_LLC_load_miss 119008
Core_0_LLC_RFOs 55424
Core_0_LLC_RFO_hit 22033
Core_0_LLC_RFO_miss 33391
Core_0_LLC_prefetches 0
Core_0_LLC_prefetch_hit 0
Core_0_LLC_prefetch_miss 0
Core_0_LLC_writebacks 171049
Core_0_LLC_writeback_hit 140812
Core_0_LLC_writeback_miss 30237
Core_0_LLC_prefetch_requested 0
Core_0_LLC_prefetch_dropped 0
Core_0_LLC_prefetch_issued 0
Core_0_LLC_prefetch_filled 0
Core_0_LLC_prefetch_useful 0
Core_0_LLC_prefetch_useless 0
Core_0_LLC_prefetch_late 0
Core_0_LLC_average_miss_latency 1271.99754

Core_0_LLC_rq_access 2072195
Core_0_LLC_rq_forward 0
Core_0_LLC_rq_merged 0
Core_0_LLC_rq_to_cache 2072193
Core_0_LLC_rq_full 0

Core_0_LLC_wq_access 970852
Core_0_LLC_wq_forward 2
Core_0_LLC_wq_merged 0
Core_0_LLC_wq_to_cache 970852
Core_0_LLC_wq_full 0

Core_0_LLC_pq_access 0
Core_0_LLC_pq_forward 0
Core_0_LLC_pq_merged 0
Core_0_LLC_pq_to_cache 0
Core_0_LLC_pq_full 0

Core_0_LLC_acc_epochs 1051324
Core_0_LLC_acc_level_0 1051324
Core_0_LLC_acc_level_1 0
Core_0_LLC_acc_level_2 0
Core_0_LLC_acc_level_3 0
Core_0_LLC_acc_level_4 0
Core_0_LLC_acc_level_5 0
Core_0_LLC_acc_level_6 0
Core_0_LLC_acc_level_7 0
Core_0_LLC_acc_level_8 0
Core_0_LLC_acc_level_9 0

Core_0_major_page_fault 0
Core_0_minor_page_fault 5130

Core_1_instructions 150000001
Core_1_cycles 1025487778
Core_1_IPC 0.14627

Core_1_branch_prediction_accuracy 99.62102
Core_1_branch_MPKI 0.81241
Core_1_average_ROB_occupancy_at_mispredict 210.60299

Core_1_L1D_total_access 23044050
Core_1_L1D_total_hit 22639815
Core_1_L1D_total_miss 404235
Core_1_L1D_loads 13906531
Core_1_L1D_load_hit 13548983
Core_1_L1D_load_miss 357548
Core_1_L1D_RFOs 9137519
Core_1_L1D_RFO_hit 9090832
Core_1_L1D_RFO_miss 46687
Core_1_L1D_prefetches 0
Core_1_L1D_prefetch_hit 0
Core_1_L1D_prefetch_miss 0
Core_1_L1D_writebacks 0
Core_1_L1D_writeback_hit 0
Core_1_L1D_writeback_miss 0
Core_1_L1D_prefetch_requested 0
Core_1_L1D_prefetch_dropped 0
Core_1_L1D_prefetch_issued 0
Core_1_L1D_prefetch_filled 0
Core_1_L1D_prefetch_useful 0
Core_1_L1D_prefetch_useless 0
Core_1_L1D_prefetch_late 0
Core_1_L1D_average_miss_latency 184.99677

Core_1_L1D_rq_access 21004270
Core_1_L1D_rq_forward 0
Core_1_L1D_rq_merged 6648894
Core_1_L1D_rq_to_cache 14355111
Core_1_L1D_rq_full 0

Core_1_L1D_wq_access 9611761
Core_1_L1D_wq_forward 265
Core_1_L1D_wq_merged 120061
Core_1_L1D_wq_to_cache 9491700
Core_1_L1D_wq_full 0

Core_1_L1D_pq_access 0
Core_1_L1D_pq_forward 0
Core_1_L1D_pq_merged 0
Core_1_L1D_pq_to_cache 0
Core_1_L1D_pq_full 0

Core_1_L1D_acc_epochs 171345
Core_1_L1D_acc_level_0 171345
Core_1_L1D_acc_level_1 0
Core_1_L1D_acc_level_2 0
Core_1_L1D_acc_level_3 0
Core_1_L1D_acc_level_4 0
Core_1_L1D_acc_level_5 0
Core_1_L1D_acc_level_6 0
Core_1_L1D_acc_level_7 0
Core_1_L1D_acc_level_8 0
Core_1_L1D_acc_level_9 0

Core_1_L1I_total_access 41777533
Core_1_L1I_total_hit 41762332
Core_1_L1I_total_miss 15201
Core_1_L1I_loads 41777533
Core_1_L1I_load_hit 41762332
Core_1_L1I_load_miss 15201
Core_1_L1I_RFOs 0
Core_1_L1I_RFO_hit 0
Core_1_L1I_RFO_miss 0
Core_1_L1I_prefetches 0
Core_1_L1I_prefetch_hit 0
Core_1_L1I_prefetch_miss 0
Core_1_L1I_writebacks 0
Core_1_L1I_writeback_hit 0
Core_1_L1I_writeback_miss 0
Core_1_L1I_prefetch_requested 0
Core_1_L1I_prefetch_dropped 0
Core_1_L1I_prefetch_issued 0
Core_1_L1I_prefetch_filled 0
Core_1_L1I_prefetch_useful 0
Core_1_L1I_prefetch_useless 0
Core_1_L1I_prefetch_late 0
Core_1_L1I_average_miss_latency 162.60812

Core_1_L1I_rq_access 154677894
Core_1_L1I_rq_forward 0
Core_1_L1I_rq_merged 111549008
Core_1_L1I_rq_to_cache 43128886
Core_1_L1I_rq_full 0

Core_1_L1I_wq_access 0
Core_1_L1I_wq_forward 0
Core_1_L1I_wq_merged 0
Core_1_L1I_wq_to_cache 0
Core_1_L1I_wq_full 0

Core_1_L1I_pq_access 0
Core_1_L1I_pq_forward 0
Core_1_L1I_pq_merged 0
Core_1_L1I_pq_to_cache 0
Core_1_L1I_pq_full 0

Core_1_L1I_acc_epochs 171345
Core_1_L1I_acc_level_0 171345
Core_1_L1I_acc_level_1 0
Core_1_L1I_acc_level_2 0
Core_1_L1I_acc_level_3 0
Core_1_L1I_acc_level_4 0
Core_1_L1I_acc_level_5 0
Core_1_L1I_acc_level_6 0
Core_1_L1I_acc_level_7 0
Core_1_L1I_acc_level_8 0
Core_1_L1I_acc_level_9 0

Core_1_L2C_total_access 643196
Core_1_L2C_total_hit 329942
Core_1_L2C_total_miss 313254
Core_1_L2C_loads 372746
Core_1_L2C_load_hit 77353
Core_1_L2C_load_miss 295393
Core_1_L2C_RFOs 46687
Core_1_L2C_RFO_hit 29042
Core_1_L2C_RFO_miss 17645
Core_1_L2C_prefetches 0
Core_1_L2C_prefetch_hit 0
Core_1_L2C_prefetch_miss 0
Core_1_L2C_writebacks 223763
Core_1_L2C_writeback_hit 223547
Core_1_L2C_writeback_miss 216
Core_1_L2C_prefetch_requested 0
Core_1_L2C_prefetch_dropped 0
Core_1_L2C_prefetch_issued 0
Core_1_L2C_prefetch_filled 0
Core_1_L2C_prefetch_useful 0
Core_1_L2C_prefetch_useless 0
Core_1_L2C_prefetch_late 0
Core_1_L2C_average_miss_latency 173.52024

Core_1_L2C_rq_access 429241
Core_1_L2C_rq_forward 0
Core_1_L2C_rq_merged 0
Core_1_L2C_rq_to_cache 429238
Core_1_L2C_rq_full 0

Core_1_L2C_wq_access 228310
Core_1_L2C_wq_forward 3
Core_1_L2C_wq_merged 0
Core_1_L2C_wq_to_cache 228310
Core_1_L2C_wq_full 0

Core_1_L2C_pq_access 0
Core_1_L2C_pq_forward 0
Core_1_L2C_pq_merged 0
Core_1_L2C_pq_to_cache 0
Core_1_L2C_pq_full 0

Core_1_L2C_acc_epochs 171345
Core_1_L2C_acc_level_0 171345
Core_1_L2C_acc_level_1 0
Core_1_L2C_acc_level_2 0
Core_1_L2C_acc_level_3 0
Core_1_L2C_acc_level_4 0
Core_1_L2C_acc_level_5 0
Core_1_L2C_acc_level_6 0
Core_1_L2C_acc_level_7 0
Core_1_L2C_acc_level_8 0
Core_1_L2C_acc_level_9 0

Core_1_LLC_total_access 477645
Core_1_LLC_total_hit 234315
Core_1_LLC_total_miss 243330
Core_1_LLC_loads 295393
Core_1_LLC_load_hit 115768
Core_1_LLC_load_miss 179625
Core_1_LLC_RFOs 17645
Core_1_LLC_RFO_hit 7593
Core_1_LLC_RFO_miss 10052
Core_1_LLC_prefetches 0
Core_1_LLC_prefetch_hit 0
Core_1_LLC_prefetch_miss 0
Core_1_LLC_writebacks 164607
Core_1_LLC_writeback_hit 110954
Core_1_LLC_writeback_miss 53653
Core_1_LLC_prefetch_requested 0
Core_1_LLC_prefetch_dropped 0
Core_1_LLC_prefetch_issued 0
Core_1_LLC_prefetch_filled 0
Core_1_LLC_prefetch_useful 0
Core_1_LLC_prefetch_useless 0
Core_1_LLC_prefetch_late 0
Core_1_LLC_average_miss_latency 954.72216

Core_1_LLC_rq_access 2072195
Core_1_LLC_rq_forward 0
Core_1_LLC_rq_merged 0
Core_1_LLC_rq_to_cache 2072193
Core_1_LLC_rq_full 0

Core_1_LLC_wq_access 970852
Core_1_LLC_wq_forward 2
Core_1_LLC_wq_merged 0
Core_1_LLC_wq_to_cache 970852
Core_1_LLC_wq_full 0

Core_1_LLC_pq_access 0
Core_1_LLC_pq_forward 0
Core_1_LLC_pq_merged 0
Core_1_LLC_pq_to_cache 0
Core_1_LLC_pq_full 0

Core_1_LLC_acc_epochs 1051324
Core_1_LLC_acc_level_0 1051324
Core_1_LLC_acc_level_1 0
Core_1_LLC_acc_level_2 0
Core_1_LLC_acc_level_3 0
Core_1_LLC_acc_level_4 0
Core_1_LLC_acc_level_5 0
Core_1_LLC_acc_level_6 0
Core_1_LLC_acc_level_7 0
Core_1_LLC_acc_level_8 0
Core_1_LLC_acc_level_9 0

Core_1_major_page_fault 0
Core_1_minor_page_fault 2387

Core_2_instructions 150000003
Core_2_cycles 1045618091
Core_2_IPC 0.14346

Core_2_branch_prediction_accuracy 98.97769
Core_2_branch_MPKI 2.09437
Core_2_average_ROB_occupancy_at_mispredict 176.35535

Core_2_L1D_total_access 24314880
Core_2_L1D_total_hit 23147258
Core_2_L1D_total_miss 1167622
Core_2_L1D_loads 14072462
Core_2_L1D_load_hit 13033415
Core_2_L1D_load_miss 1039047
Core_2_L1D_RFOs 10242418
Core_2_L1D_RFO_hit 10113843
Core_2_L1D_RFO_miss 128575
Core_2_L1D_prefetches 0
Core_2_L1D_prefetch_hit 0
Core_2_L1D_prefetch_miss 0
Core_2_L1D_writebacks 0
Core_2_L1D_writeback_hit 0
Core_2_L1D_writeback_miss 0
Core_2_L1D_prefetch_requested 0
Core_2_L1D_prefetch_dropped 0
Core_2_L1D_prefetch_issued 0
Core_2_L1D_prefetch_filled 0
Core_2_L1D_prefetch_useful 0
Core_2_L1D_prefetch_useless 0
Core_2_L1D_prefetch_late 0
Core_2_L1D_average_miss_latency 186.92592

Core_2_L1D_rq_access 20765496
Core_2_L1D_rq_forward 0
Core_2_L1D_rq_merged 6500509
Core_2_L1D_rq_to_cache 14263703
Core_2_L1D_rq_full 0

Core_2_L1D_wq_access 10930951
Core_2_L1D_wq_forward 1284
Core_2_L1D_wq_merged 219184
Core_2_L1D_wq_to_cache 10711767
Core_2_L1D_wq_full 15819

Core_2_L1D_pq_access 0
Core_2_L1D_pq_forward 0
Core_2_L1D_pq_merged 0
Core_2_L1D_pq_to_cache 0
Core_2_L1D_pq_full 0

Core_2_L1D_acc_epochs 203506
Core_2_L1D_acc_level_0 203506
Core_2_L1D_acc_level_1 0
Core_2_L1D_acc_level_2 0
Core_2_L1D_acc_level_3 0
Core_2_L1D_acc_level_4 0
Core_2_L1D_acc_level_5 0
Core_2_L1D_acc_level_6 0
Core_2_L1D_acc_level_7 0
Core_2_L1D_acc_level_8 0
Core_2_L1D_acc_level_9 0

Core_2_L1I_total_access 37031598
Core_2_L1I_total_hit 36642561
Core_2_L1I_total_miss 389037
Core_2_L1I_loads 37031598
Core_2_L1I_load_hit 36642561
Core_2_L1I_load_miss 389037
Core_2_L1I_RFOs 0
Core_2_L1I_RFO_hit 0
Core_2_L1I_RFO_miss 0
Core_2_L1I_prefetches 0
Core_2_L1I_prefetch_hit 0
Core_2_L1I_prefetch_miss 0
Core_2_L1I_writebacks 0
Core_2_L1I_writeback_hit 0
Core_2_L1I_writeback_miss 0
Core_2_L1I_prefetch_requested 0
Core_2_L1I_prefetch_dropped 0
Core_2_L1I_prefetch_issued 0
Core_2_L1I_prefetch_filled 0
Core_2_L1I_prefetch_useful 0
Core_2_L1I_prefetch_useless 0
Core_2_L1I_prefetch_late 0
Core_2_L1I_average_miss_latency 101.93767

Core_2_L1I_rq_access 151531395
Core_2_L1I_rq_forward 0
Core_2_L1I_rq_merged 113895576
Core_2_L1I_rq_to_cache 37635819
Core_2_L1I_rq_full 0

Core_2_L1I_wq_access 0
Core_2_L1I_wq_forward 0
Core_2_L1I_wq_merged 0
Core_2_L1I_wq_to_cache 0
Core_2_L1I_wq_full 0

Core_2_L1I_pq_access 0
Core_2_L1I_pq_forward 0
Core_2_L1I_pq_merged 0
Core_2_L1I_pq_to_cache 0
Core_2_L1I_pq_full 0

Core_2_L1I_acc_epochs 203506
Core_2_L1I_acc_level_0 203506
Core_2_L1I_acc_level_1 0
Core_2_L1I_acc_level_2 0
Core_2_L1I_acc_level_3 0
Core_2_L1I_acc_level_4 0
Core_2_L1I_acc_level_5 0
Core_2_L1I_acc_level_6 0
Core_2_L1I_acc_level_7 0
Core_2_L1I_acc_level_8 0
Core_2_L1I_acc_level_9 0

Core_2_L2C_total_access 2002357
Core_2_L2C_total_hit 1026307
Core_2_L2C_total_miss 976050
Core_2_L2C_loads 1428065
Core_2_L2C_load_hit 527646
Core_2_L2C_load_miss 900419
Core_2_L2C_RFOs 128575
Core_2_L2C_RFO_hit 54643
Core_2_L2C_RFO_miss 73932
Core_2_L2C_prefetches 0
Core_2_L2C_prefetch_hit 0
Core_2_L2C_prefetch_miss 0
Core_2_L2C_writebacks 445717
Core_2_L2C_writeback_hit 444018
Core_2_L2C_writeback_miss 1699
Core_2_L2C_prefetch_requested 0
Core_2_L2C_prefetch_dropped 0
Core_2_L2C_prefetch_issued 0
Core_2_L2C_prefetch_filled 0
Core_2_L2C_prefetch_useful 0
Core_2_L2C_prefetch_useless 0
Core_2_L2C_prefetch_late 0
Core_2_L2C_average_miss_latency 168.59775

Core_2_L2C_rq_access 1565893
Core_2_L2C_rq_forward 0
Core_2_L2C_rq_merged 0
Core_2_L2C_rq_to_cache 1565874
Core_2_L2C_rq_full 0

Core_2_L2C_wq_access 448649
Core_2_L2C_wq_forward 19
Core_2_L2C_wq_merged 0
Core_2_L2C_wq_to_cache 448649
Core_2_L2C_wq_full 0

Core_2_L2C_pq_access 0
Core_2_L2C_pq_forward 0
Core_2_L2C_pq_merged 0
Core_2_L2C_pq_to_cache 0
Core_2_L2C_pq_full 0

Core_2_L2C_acc_epochs 203506
Core_2_L2C_acc_level_0 203506
Core_2_L2C_acc_level_1 0
Core_2_L2C_acc_level_2 0
Core_2_L2C_acc_level_3 0
Core_2_L2C_acc_level_4 0
Core_2_L2C_acc_level_5 0
Core_2_L2C_acc_level_6 0
Core_2_L2C_acc_level_7 0
Core_2_L2C_acc_level_8 0
Core_2_L2C_acc_level_9 0

Core_2_LLC_total_access 1307415
Core_2_LLC_total_hit 504132
Core_2_LLC_total_miss 803283
Core_2_LLC_loads 900419
Core_2_LLC_load_hit 234282
Core_2_LLC_load_miss 666137
Core_2_LLC_RFOs 73932
Core_2_LLC_RFO_hit 20604
Core_2_LLC_RFO_miss 53328
Core_2_LLC_prefetches 0
Core_2_LLC_prefetch_hit 0
Core_2_LLC_prefetch_miss 0
Core_2_LLC_writebacks 333064
Core_2_LLC_writeback_hit 249246
Core_2_LLC_writeback_miss 83818
Core_2_LLC_prefetch_requested 0
Core_2_LLC_prefetch_dropped 0
Core_2_LLC_prefetch_issued 0
Core_2_LLC_prefetch_filled 0
Core_2_LLC_prefetch_useful 0
Core_2_LLC_prefetch_useless 0
Core_2_LLC_prefetch_late 0
Core_2_LLC_average_miss_latency 289.20386

Core_2_LLC_rq_access 2072195
Core_2_LLC_rq_forward 0
Core_2_LLC_rq_merged 0
Core_2_LLC_rq_to_cache 2072193
Core_2_LLC_rq_full 0

Core_2_LLC_wq_access 970852
Core_2_LLC_wq_forward 2
Core_2_LLC_wq_merged 0
Core_2_LLC_wq_to_cache 970852
Core_2_LLC_wq_full 0

Core_2_LLC_pq_access 0
Core_2_LLC_pq_forward 0
Core_2_LLC_pq_merged 0
Core_2_LLC_pq_to_cache 0
Core_2_LLC_pq_full 0

Core_2_LLC_acc_epochs 1051324
Core_2_LLC_acc_level_0 1051324
Core_2_LLC_acc_level_1 0
Core_2_LLC_acc_level_2 0
Core_2_LLC_acc_level_3 0
Core_2_LLC_acc_level_4 0
Core_2_LLC_acc_level_5 0
Core_2_LLC_acc_level_6 0
Core_2_LLC_acc_level_7 0
Core_2_LLC_acc_level_8 0
Core_2_LLC_acc_level_9 0

Core_2_major_page_fault 0
Core_2_minor_page_fault 71899

Core_3_instructions 150000000
Core_3_cycles 1056481491
Core_3_IPC 0.14198

Core_3_branch_prediction_accuracy 99.43225
Core_3_branch_MPKI 1.23695
Core_3_average_ROB_occupancy_at_mispredict 187.98328

Core_3_L1D_total_access 22998149
Core_3_L1D_total_hit 22439183
Core_3_L1D_total_miss 558966
Core_3_L1D_loads 13975194
Core_3_L1D_load_hit 13444505
Core_3_L1D_load_miss 530689
Core_3_L1D_RFOs 9022955
Core_3_L1D_RFO_hit 8994678
Core_3_L1D_RFO_miss 28277
Core_3_L1D_prefetches 0
Core_3_L1D_prefetch_hit 0
Core_3_L1D_prefetch_miss 0
Core_3_L1D_writebacks 0
Core_3_L1D_writeback_hit 0
Core_3_L1D_writeback_miss 0
Core_3_L1D_prefetch_requested 0
Core_3_L1D_prefetch_dropped 0
Core_3_L1D_prefetch_issued 0
Core_3_L1D_prefetch_filled 0
Core_3_L1D_prefetch_useful 0
Core_3_L1D_prefetch_useless 0
Core_3_L1D_prefetch_late 0
Core_3_L1D_average_miss_latency 188.73063

Core_3_L1D_rq_access 20591384
Core_3_L1D_rq_forward 0
Core_3_L1D_rq_merged 6555763
Core_3_L1D_rq_to_cache 14035526
Core_3_L1D_rq_full 0

Core_3_L1D_wq_access 9223727
Core_3_L1D_wq_forward 95
Core_3_L1D_wq_merged 160806
Core_3_L1D_wq_to_cache 9062921
Core_3_L1D_wq_full 0

Core_3_L1D_pq_access 0
Core_3_L1D_pq_forward 0
Core_3_L1D_pq_merged 0
Core_3_L1D_pq_to_cache 0
Core_3_L1D_pq_full 0

Core_3_L1D_acc_epochs 171839
Core_3_L1D_acc_level_0 171839
Core_3_L1D_acc_level_1 0
Core_3_L1D_acc_level_2 0
Core_3_L1D_acc_level_3 0
Core_3_L1D_acc_level_4 0
Core_3_L1D_acc_level_5 0
Core_3_L1D_acc_level_6 0
Core_3_L1D_acc_level_7 0
Core_3_L1D_acc_level_8 0
Core_3_L1D_acc_level_9 0

Core_3_L1I_total_access 40729590
Core_3_L1I_total_hit 40727281
Core_3_L1I_total_miss 2309
Core_3_L1I_loads 40729590
Core_3_L1I_load_hit 40727281
Core_3_L1I_load_miss 2309
Core_3_L1I_RFOs 0
Core_3_L1I_RFO_hit 0
Core_3_L1I_RFO_miss 0
Core_3_L1I_prefetches 0
Core_3_L1I_prefetch_hit 0
Core_3_L1I_prefetch_miss 0
Core_3_L1I_writebacks 0
Core_3_L1I_writeback_hit 0
Core_3_L1I_writeback_miss 0
Core_3_L1I_prefetch_requested 0
Core_3_L1I_prefetch_dropped 0
Core_3_L1I_prefetch_issued 0
Core_3_L1I_prefetch_filled 0
Core_3_L1I_prefetch_useful 0
Core_3_L1I_prefetch_useless 0
Core_3_L1I_prefetch_late 0
Core_3_L1I_average_miss_latency 256.41187

Core_3_L1I_rq_access 149999988
Core_3_L1I_rq_forward 0
Core_3_L1I_rq_merged 109269182
Core_3_L1I_rq_to_cache 40730806
Core_3_L1I_rq_full 0

Core_3_L1I_wq_access 0
Core_3_L1I_wq_forward 0
Core_3_L1I_wq_merged 0
Core_3_L1I_wq_to_cache 0
Core_3_L1I_wq_full 0

Core_3_L1I_pq_access 0
Core_3_L1I_pq_forward 0
Core_3_L1I_pq_merged 0
Core_3_L1I_pq_to_cache 0
Core_3_L1I_pq_full 0

Core_3_L1I_acc_epochs 171839
Core_3_L1I_acc_level_0 171839
Core_3_L1I_acc_level_1 0
Core_3_L1I_acc_level_2 0
Core_3_L1I_acc_level_3 0
Core_3_L1I_acc_level_4 0
Core_3_L1I_acc_level_5 0
Core_3_L1I_acc_level_6 0
Core_3_L1I_acc_level_7 0
Core_3_L1I_acc_level_8 0
Core_3_L1I_acc_level_9 0

Core_3_L2C_total_access 881957
Core_3_L2C_total_hit 408870
Core_3_L2C_total_miss 473087
Core_3_L2C_loads 532995
Core_3_L2C_load_hit 75430
Core_3_L2C_load_miss 457565
Core_3_L2C_RFOs 28272
Core_3_L2C_RFO_hit 13328
Core_3_L2C_RFO_miss 14944
Core_3_L2C_prefetches 0
Core_3_L2C_prefetch_hit 0
Core_3_L2C_prefetch_miss 0
Core_3_L2C_writebacks 320690
Core_3_L2C_writeback_hit 320112
Core_3_L2C_writeback_miss 578
Core_3_L2C_prefetch_requested 0
Core_3_L2C_prefetch_dropped 0
Core_3_L2C_prefetch_issued 0
Core_3_L2C_prefetch_filled 0
Core_3_L2C_prefetch_useful 0
Core_3_L2C_prefetch_useless 0
Core_3_L2C_prefetch_late 0
Core_3_L2C_average_miss_latency 149.48631

Core_3_L2C_rq_access 561275
Core_3_L2C_rq_forward 0
Core_3_L2C_rq_merged 0
Core_3_L2C_rq_to_cache 561267
Core_3_L2C_rq_full 0

Core_3_L2C_wq_access 320690
Core_3_L2C_wq_forward 8
Core_3_L2C_wq_merged 0
Core_3_L2C_wq_to_cache 320690
Core_3_L2C_wq_full 0

Core_3_L2C_pq_access 0
Core_3_L2C_pq_forward 0
Core_3_L2C_pq_merged 0
Core_3_L2C_pq_to_cache 0
Core_3_L2C_pq_full 0

Core_3_L2C_acc_epochs 171839
Core_3_L2C_acc_level_0 171839
Core_3_L2C_acc_level_1 0
Core_3_L2C_acc_level_2 0
Core_3_L2C_acc_level_3 0
Core_3_L2C_acc_level_4 0
Core_3_L2C_acc_level_5 0
Core_3_L2C_acc_level_6 0
Core_3_L2C_acc_level_7 0
Core_3_L2C_acc_level_8 0
Core_3_L2C_acc_level_9 0

Core_3_LLC_total_access 752897
Core_3_LLC_total_hit 485445
Core_3_LLC_total_miss 267452
Core_3_LLC_loads 457563
Core_3_LLC_load_hit 232892
Core_3_LLC_load_miss 224671
Core_3_LLC_RFOs 14944
Core_3_LLC_RFO_hit 9069
Core_3_LLC_RFO_miss 5875
Core_3_LLC_prefetches 0
Core_3_LLC_prefetch_hit 0
Core_3_LLC_prefetch_miss 0
Core_3_LLC_writebacks 280390
Core_3_LLC_writeback_hit 243484
Core_3_LLC_writeback_miss 36906
Core_3_LLC_prefetch_requested 0
Core_3_LLC_prefetch_dropped 0
Core_3_LLC_prefetch_issued 0
Core_3_LLC_prefetch_filled 0
Core_3_LLC_prefetch_useful 0
Core_3_LLC_prefetch_useless 0
Core_3_LLC_prefetch_late 0
Core_3_LLC_average_miss_latency 868.61396

Core_3_LLC_rq_access 2072195
Core_3_LLC_rq_forward 0
Core_3_LLC_rq_merged 0
Core_3_LLC_rq_to_cache 2072193
Core_3_LLC_rq_full 0

Core_3_LLC_wq_access 970852
Core_3_LLC_wq_forward 2
Core_3_LLC_wq_merged 0
Core_3_LLC_wq_to_cache 970852
Core_3_LLC_wq_full 0

Core_3_LLC_pq_access 0
Core_3_LLC_pq_forward 0
Core_3_LLC_pq_merged 0
Core_3_LLC_pq_to_cache 0
Core_3_LLC_pq_full 0

Core_3_LLC_acc_epochs 1051324
Core_3_LLC_acc_level_0 1051324
Core_3_LLC_acc_level_1 0
Core_3_LLC_acc_level_2 0
Core_3_LLC_acc_level_3 0
Core_3_LLC_acc_level_4 0
Core_3_LLC_acc_level_5 0
Core_3_LLC_acc_level_6 0
Core_3_LLC_acc_level_7 0
Core_3_LLC_acc_level_8 0
Core_3_LLC_acc_level_9 0

Core_3_major_page_fault 0
Core_3_minor_page_fault 3508

Channel_0_RQ_row_buffer_hit 98326
Channel_0_RQ_row_buffer_miss 563734
Channel_0_WQ_row_buffer_hit 18353
Channel_0_WQ_row_buffer_miss 261422
Channel_0_WQ_full 0
Channel_0_dbus_congested 53486

Channel_1_RQ_row_buffer_hit 92137
Channel_1_RQ_row_buffer_miss 560183
Channel_1_WQ_row_buffer_hit 18168
Channel_1_WQ_row_buffer_miss 261669
Channel_1_WQ_full 0
Channel_1_dbus_congested 50940

avg_congested_cycle 9

DRAM_bw_pochs 4205295
DRAM_bw_level_0 4202976
DRAM_bw_level_1 1883
DRAM_bw_level_2 379
DRAM_bw_level_3 57
