*************************************************
   ChampSim Multicore Out-of-Order Simulator
   Last compiled: Mar 31 2025 20:14:32
*************************************************
parsing config file: /data3/config/dspatch.ini

trace_0 /data3/CLOUD9/traces/cloud9_phase0_core0.trace.xz
trace_1 /data3/CLOUD9/traces/cloud9_phase0_core1.trace.xz
trace_2 /data3/CLOUD9/traces/cloud9_phase0_core2.trace.xz
trace_3 /data3/CLOUD9/traces/cloud9_phase0_core3.trace.xz
adding L2C_PREFETCHER: DSPatch
adding L2C_PREFETCHER: DSPatch
adding L2C_PREFETCHER: DSPatch
adding L2C_PREFETCHER: DSPatch
Initialize SHIP state
warmup_instructions 50000000
simulation_instructions 150000000
champsim_seed 7334
measure_ipc 0
measure_ipc_epoch 1000
measure_dram_bw 1
measure_dram_bw_epoch 256
measure_cache_acc 1
measure_cache_acc_epoch 1024
l1d_perfect 0
l2c_perfect 0
llc_perfect 0
l1d_semi_perfect 0
l2c_semi_perfect 0
llc_semi_perfect 0
semi_perfect_cache_page_buffer_size 64

num_cpus 4
cpu_freq 4000
dram_io_freq 2400
page_size 4096
block_size 64
max_read_per_cycle 8
max_fill_per_cycle 1
dram_channels 2
log2_dram_channels 1
dram_ranks 1
dram_banks 8
dram_rows 65536
dram_columns 128
dram_row_size 8
dram_size 8192
dram_pages 2097152

fetch_width 6
decode_width 6
exec_width 4
lq_width 2
sq_width 2
retire_width 4
scheduler_size 128
branch_mispredict_penalty 20
rob_size 256
lq_size 72
sq_size 56
num_instr_destinations_sparc 4
num_instr_destinations 2
num_instr_sources 4

itlb_set 16
itlb_way 8
itlb_rq_size 16
itlb_wq_size 16
itlb_pq_size 0
itlb_mshr_size 8
itlb_latency 1

dtlb_set 16
dtlb_way 4
dtlb_rq_size 16
dtlb_wq_size 16
dtlb_pq_size 0
dtlb_mshr_size 8
dtlb_latency 1

stlb_set 128
stlb_way 12
stlb_rq_size 32
stlb_wq_size 32
stlb_pq_size 0
stlb_mshr_size 16
stlb_latency 8

l1i_size 32
l1i_set 64
l1i_way 8
l1i_rq_size 64
l1i_wq_size 64
l1i_pq_size 8
l1i_mshr_size 8
l1i_latency 1

l1d_size 32
l1d_set 64
l1d_way 8
l1d_rq_size 64
l1d_wq_size 64
l1d_pq_size 8
l1d_mshr_size 16
l1d_latency 4

l2c_size 256
l2c_set 512
l2c_way 8
l2c_rq_size 32
l2c_wq_size 32
l2c_pq_size 32
l2c_mshr_size 32
l2c_latency 10

llc_size 8192
llc_set 8192
llc_way 16
llc_rq_size 128
llc_wq_size 128
llc_pq_size 128
llc_mshr_size 256
llc_latency 20

dram_channel_width 8
dram_wq_size 64
dram_rq_size 64
tRP 15
tRCD 15
tCAS 12.5
dram_dbus_turn_around_time 30
dram_write_high_wm 56
dram_write_low_wm 48
min_dram_writes_per_switch 16
dram_mtps 2400
dram_dbus_return_time 13

dspatch_log2_region_size 11
dspatch_num_cachelines_in_region 32
dspatch_pb_size 64
dspatch_num_spt_entries 256
dspatch_compression_granularity 2
dspatch_pred_throttle_bw_thr 3
dspatch_bitmap_selection_policy 3
dspatch_sig_type 1
dspatch_sig_hash_type 2
dspatch_or_count_max 3
dspatch_measure_covP_max 3
dspatch_measure_accP_max 3
dspatch_acc_thr 50
dspatch_cov_thr 50
dspatch_enable_pref_buffer 1
dspatch_pref_buffer_size 256
dspatch_pref_degree 4


Heartbeat CPU  3 instructions:    1000000 cycles:     387687 heartbeat IPC: 2.57940 cumulative IPC: 2.57940 (Simulation time: 0 hr 0 min 6 sec) 
Heartbeat CPU  2 instructions:    1000000 cycles:     404024 heartbeat IPC: 2.47510 cumulative IPC: 2.47510 (Simulation time: 0 hr 0 min 6 sec) 
Heartbeat CPU  1 instructions:    1000000 cycles:     424355 heartbeat IPC: 2.35652 cumulative IPC: 2.35652 (Simulation time: 0 hr 0 min 7 sec) 
Heartbeat CPU  0 instructions:    1000002 cycles:     428529 heartbeat IPC: 2.33357 cumulative IPC: 2.33357 (Simulation time: 0 hr 0 min 7 sec) 
Heartbeat CPU  3 instructions:    2000002 cycles:     774525 heartbeat IPC: 2.58507 cumulative IPC: 2.58223 (Simulation time: 0 hr 0 min 12 sec) 
Heartbeat CPU  2 instructions:    2000001 cycles:     795995 heartbeat IPC: 2.55121 cumulative IPC: 2.51258 (Simulation time: 0 hr 0 min 12 sec) 
Heartbeat CPU  1 instructions:    2000002 cycles:     863947 heartbeat IPC: 2.27484 cumulative IPC: 2.31496 (Simulation time: 0 hr 0 min 13 sec) 
Heartbeat CPU  0 instructions:    2000002 cycles:     897014 heartbeat IPC: 2.13454 cumulative IPC: 2.22962 (Simulation time: 0 hr 0 min 14 sec) 
Heartbeat CPU  3 instructions:    3000001 cycles:    1161783 heartbeat IPC: 2.58226 cumulative IPC: 2.58224 (Simulation time: 0 hr 0 min 18 sec) 
Heartbeat CPU  2 instructions:    3000001 cycles:    1199039 heartbeat IPC: 2.48112 cumulative IPC: 2.50200 (Simulation time: 0 hr 0 min 18 sec) 
Heartbeat CPU  1 instructions:    3000003 cycles:    1258401 heartbeat IPC: 2.53515 cumulative IPC: 2.38398 (Simulation time: 0 hr 0 min 19 sec) 
Heartbeat CPU  0 instructions:    3000000 cycles:    1381054 heartbeat IPC: 2.06594 cumulative IPC: 2.17225 (Simulation time: 0 hr 0 min 21 sec) 
Heartbeat CPU  3 instructions:    4000000 cycles:    1547848 heartbeat IPC: 2.59023 cumulative IPC: 2.58423 (Simulation time: 0 hr 0 min 24 sec) 
Heartbeat CPU  2 instructions:    4000000 cycles:    1598172 heartbeat IPC: 2.50543 cumulative IPC: 2.50286 (Simulation time: 0 hr 0 min 24 sec) 
Heartbeat CPU  1 instructions:    4000000 cycles:    1653456 heartbeat IPC: 2.53129 cumulative IPC: 2.41918 (Simulation time: 0 hr 0 min 25 sec) 
Heartbeat CPU  0 instructions:    4000000 cycles:    1819786 heartbeat IPC: 2.27930 cumulative IPC: 2.19806 (Simulation time: 0 hr 0 min 28 sec) 
Heartbeat CPU  3 instructions:    5000002 cycles:    1934705 heartbeat IPC: 2.58494 cumulative IPC: 2.58437 (Simulation time: 0 hr 0 min 30 sec) 
Heartbeat CPU  2 instructions:    5000001 cycles:    2000491 heartbeat IPC: 2.48559 cumulative IPC: 2.49939 (Simulation time: 0 hr 0 min 31 sec) 
Heartbeat CPU  1 instructions:    5000003 cycles:    2048652 heartbeat IPC: 2.53040 cumulative IPC: 2.44063 (Simulation time: 0 hr 0 min 32 sec) 
Heartbeat CPU  0 instructions:    5000002 cycles:    2265029 heartbeat IPC: 2.24597 cumulative IPC: 2.20748 (Simulation time: 0 hr 0 min 35 sec) 
Heartbeat CPU  3 instructions:    6000003 cycles:    2320491 heartbeat IPC: 2.59211 cumulative IPC: 2.58566 (Simulation time: 0 hr 0 min 36 sec) 
Heartbeat CPU  2 instructions:    6000002 cycles:    2403419 heartbeat IPC: 2.48184 cumulative IPC: 2.49644 (Simulation time: 0 hr 0 min 37 sec) 
Heartbeat CPU  1 instructions:    6000001 cycles:    2603713 heartbeat IPC: 1.80160 cumulative IPC: 2.30440 (Simulation time: 0 hr 0 min 40 sec) 
Heartbeat CPU  3 instructions:    7000003 cycles:    2710992 heartbeat IPC: 2.56081 cumulative IPC: 2.58208 (Simulation time: 0 hr 0 min 42 sec) 
Heartbeat CPU  0 instructions:    6000001 cycles:    2731359 heartbeat IPC: 2.14440 cumulative IPC: 2.19671 (Simulation time: 0 hr 0 min 42 sec) 
Heartbeat CPU  2 instructions:    7000002 cycles:    2807467 heartbeat IPC: 2.47495 cumulative IPC: 2.49335 (Simulation time: 0 hr 0 min 43 sec) 
Heartbeat CPU  1 instructions:    7000001 cycles:    3012447 heartbeat IPC: 2.44658 cumulative IPC: 2.32369 (Simulation time: 0 hr 0 min 46 sec) 
Heartbeat CPU  3 instructions:    8000000 cycles:    3099556 heartbeat IPC: 2.57357 cumulative IPC: 2.58101 (Simulation time: 0 hr 0 min 48 sec) 
Heartbeat CPU  0 instructions:    7000003 cycles:    3175758 heartbeat IPC: 2.25023 cumulative IPC: 2.20420 (Simulation time: 0 hr 0 min 49 sec) 
Heartbeat CPU  2 instructions:    8000000 cycles:    3210344 heartbeat IPC: 2.48214 cumulative IPC: 2.49194 (Simulation time: 0 hr 0 min 49 sec) 
Heartbeat CPU  1 instructions:    8000000 cycles:    3409223 heartbeat IPC: 2.52031 cumulative IPC: 2.34658 (Simulation time: 0 hr 0 min 53 sec) 
Heartbeat CPU  3 instructions:    9000001 cycles:    3486742 heartbeat IPC: 2.58274 cumulative IPC: 2.58121 (Simulation time: 0 hr 0 min 54 sec) 
Heartbeat CPU  2 instructions:    9000002 cycles:    3612611 heartbeat IPC: 2.48592 cumulative IPC: 2.49127 (Simulation time: 0 hr 0 min 56 sec) 
Heartbeat CPU  0 instructions:    8000000 cycles:    3671285 heartbeat IPC: 2.01805 cumulative IPC: 2.17907 (Simulation time: 0 hr 0 min 57 sec) 
Heartbeat CPU  1 instructions:    9000003 cycles:    3812168 heartbeat IPC: 2.48174 cumulative IPC: 2.36086 (Simulation time: 0 hr 0 min 59 sec) 
Heartbeat CPU  3 instructions:   10000000 cycles:    3873662 heartbeat IPC: 2.58451 cumulative IPC: 2.58154 (Simulation time: 0 hr 1 min 0 sec) 
Heartbeat CPU  2 instructions:   10000003 cycles:    4012871 heartbeat IPC: 2.49838 cumulative IPC: 2.49198 (Simulation time: 0 hr 1 min 2 sec) 
Heartbeat CPU  0 instructions:    9000002 cycles:    4103843 heartbeat IPC: 2.31183 cumulative IPC: 2.19307 (Simulation time: 0 hr 1 min 3 sec) 
Heartbeat CPU  3 instructions:   11000000 cycles:    4261344 heartbeat IPC: 2.57943 cumulative IPC: 2.58135 (Simulation time: 0 hr 1 min 6 sec) 
Heartbeat CPU  1 instructions:   10000000 cycles:    4278226 heartbeat IPC: 2.14565 cumulative IPC: 2.33742 (Simulation time: 0 hr 1 min 6 sec) 
Heartbeat CPU  2 instructions:   11000001 cycles:    4415362 heartbeat IPC: 2.48452 cumulative IPC: 2.49130 (Simulation time: 0 hr 1 min 8 sec) 
Heartbeat CPU  0 instructions:   10000003 cycles:    4537115 heartbeat IPC: 2.30802 cumulative IPC: 2.20404 (Simulation time: 0 hr 1 min 10 sec) 
Heartbeat CPU  3 instructions:   12000000 cycles:    4648448 heartbeat IPC: 2.58329 cumulative IPC: 2.58151 (Simulation time: 0 hr 1 min 12 sec) 
Heartbeat CPU  1 instructions:   11000001 cycles:    4767484 heartbeat IPC: 2.04391 cumulative IPC: 2.30730 (Simulation time: 0 hr 1 min 13 sec) 
Heartbeat CPU  2 instructions:   12000000 cycles:    4816439 heartbeat IPC: 2.49328 cumulative IPC: 2.49147 (Simulation time: 0 hr 1 min 14 sec) 
Heartbeat CPU  0 instructions:   11000002 cycles:    4968750 heartbeat IPC: 2.31677 cumulative IPC: 2.21384 (Simulation time: 0 hr 1 min 17 sec) 
Heartbeat CPU  3 instructions:   13000003 cycles:    5034839 heartbeat IPC: 2.58806 cumulative IPC: 2.58201 (Simulation time: 0 hr 1 min 18 sec) 
Heartbeat CPU  1 instructions:   12000000 cycles:    5178509 heartbeat IPC: 2.43294 cumulative IPC: 2.31727 (Simulation time: 0 hr 1 min 20 sec) 
Heartbeat CPU  2 instructions:   13000000 cycles:    5217658 heartbeat IPC: 2.49240 cumulative IPC: 2.49154 (Simulation time: 0 hr 1 min 21 sec) 
Heartbeat CPU  0 instructions:   12000000 cycles:    5404578 heartbeat IPC: 2.29448 cumulative IPC: 2.22034 (Simulation time: 0 hr 1 min 24 sec) 
Heartbeat CPU  3 instructions:   14000002 cycles:    5421663 heartbeat IPC: 2.58515 cumulative IPC: 2.58223 (Simulation time: 0 hr 1 min 24 sec) 
Heartbeat CPU  1 instructions:   13000001 cycles:    5594140 heartbeat IPC: 2.40598 cumulative IPC: 2.32386 (Simulation time: 0 hr 1 min 27 sec) 
Heartbeat CPU  2 instructions:   14000001 cycles:    5618947 heartbeat IPC: 2.49197 cumulative IPC: 2.49157 (Simulation time: 0 hr 1 min 27 sec) 
Heartbeat CPU  3 instructions:   15000001 cycles:    5809596 heartbeat IPC: 2.57776 cumulative IPC: 2.58194 (Simulation time: 0 hr 1 min 29 sec) 
Heartbeat CPU  0 instructions:   13000000 cycles:    6014281 heartbeat IPC: 1.64014 cumulative IPC: 2.16152 (Simulation time: 0 hr 1 min 33 sec) 
Heartbeat CPU  2 instructions:   15000002 cycles:    6019878 heartbeat IPC: 2.49420 cumulative IPC: 2.49175 (Simulation time: 0 hr 1 min 33 sec) 
Heartbeat CPU  1 instructions:   14000001 cycles:    6024269 heartbeat IPC: 2.32488 cumulative IPC: 2.32393 (Simulation time: 0 hr 1 min 33 sec) 
Heartbeat CPU  3 instructions:   16000000 cycles:    6190761 heartbeat IPC: 2.62353 cumulative IPC: 2.58450 (Simulation time: 0 hr 1 min 35 sec) 
Heartbeat CPU  2 instructions:   16000000 cycles:    6420481 heartbeat IPC: 2.49623 cumulative IPC: 2.49203 (Simulation time: 0 hr 1 min 39 sec) 
Heartbeat CPU  1 instructions:   15000001 cycles:    6426617 heartbeat IPC: 2.48541 cumulative IPC: 2.33404 (Simulation time: 0 hr 1 min 39 sec) 
Heartbeat CPU  0 instructions:   14000002 cycles:    6451293 heartbeat IPC: 2.28827 cumulative IPC: 2.17011 (Simulation time: 0 hr 1 min 40 sec) 
Heartbeat CPU  3 instructions:   17000002 cycles:    6577081 heartbeat IPC: 2.58853 cumulative IPC: 2.58473 (Simulation time: 0 hr 1 min 42 sec) 
Heartbeat CPU  2 instructions:   17000001 cycles:    6822267 heartbeat IPC: 2.48889 cumulative IPC: 2.49184 (Simulation time: 0 hr 1 min 45 sec) 
Heartbeat CPU  0 instructions:   15000003 cycles:    6888799 heartbeat IPC: 2.28569 cumulative IPC: 2.17745 (Simulation time: 0 hr 1 min 46 sec) 
Heartbeat CPU  1 instructions:   16000000 cycles:    6894853 heartbeat IPC: 2.13567 cumulative IPC: 2.32057 (Simulation time: 0 hr 1 min 46 sec) 
Heartbeat CPU  3 instructions:   18000003 cycles:    6966526 heartbeat IPC: 2.56776 cumulative IPC: 2.58378 (Simulation time: 0 hr 1 min 48 sec) 
Heartbeat CPU  2 instructions:   18000001 cycles:    7223898 heartbeat IPC: 2.48985 cumulative IPC: 2.49173 (Simulation time: 0 hr 1 min 52 sec) 
Heartbeat CPU  1 instructions:   17000003 cycles:    7290438 heartbeat IPC: 2.52791 cumulative IPC: 2.33182 (Simulation time: 0 hr 1 min 53 sec) 
Heartbeat CPU  0 instructions:   16000000 cycles:    7323999 heartbeat IPC: 2.29779 cumulative IPC: 2.18460 (Simulation time: 0 hr 1 min 53 sec) 
Heartbeat CPU  3 instructions:   19000003 cycles:    7356545 heartbeat IPC: 2.56398 cumulative IPC: 2.58273 (Simulation time: 0 hr 1 min 54 sec) 
Heartbeat CPU  2 instructions:   19000003 cycles:    7624824 heartbeat IPC: 2.49423 cumulative IPC: 2.49186 (Simulation time: 0 hr 1 min 58 sec) 
Heartbeat CPU  1 instructions:   18000001 cycles:    7685220 heartbeat IPC: 2.53304 cumulative IPC: 2.34216 (Simulation time: 0 hr 1 min 59 sec) 
Heartbeat CPU  3 instructions:   20000000 cycles:    7745455 heartbeat IPC: 2.57128 cumulative IPC: 2.58216 (Simulation time: 0 hr 2 min 0 sec) 
Heartbeat CPU  0 instructions:   17000001 cycles:    7788367 heartbeat IPC: 2.15347 cumulative IPC: 2.18274 (Simulation time: 0 hr 2 min 1 sec) 
Heartbeat CPU  2 instructions:   20000000 cycles:    8025057 heartbeat IPC: 2.49854 cumulative IPC: 2.49219 (Simulation time: 0 hr 2 min 4 sec) 
Heartbeat CPU  1 instructions:   19000001 cycles:    8080524 heartbeat IPC: 2.52970 cumulative IPC: 2.35133 (Simulation time: 0 hr 2 min 5 sec) 
Heartbeat CPU  3 instructions:   21000003 cycles:    8133173 heartbeat IPC: 2.57920 cumulative IPC: 2.58202 (Simulation time: 0 hr 2 min 6 sec) 
Heartbeat CPU  0 instructions:   18000000 cycles:    8231101 heartbeat IPC: 2.25869 cumulative IPC: 2.18683 (Simulation time: 0 hr 2 min 7 sec) 
Heartbeat CPU  2 instructions:   21000003 cycles:    8426407 heartbeat IPC: 2.49160 cumulative IPC: 2.49217 (Simulation time: 0 hr 2 min 11 sec) 
Heartbeat CPU  1 instructions:   20000000 cycles:    8475499 heartbeat IPC: 2.53180 cumulative IPC: 2.35974 (Simulation time: 0 hr 2 min 11 sec) 
Heartbeat CPU  3 instructions:   22000000 cycles:    8520295 heartbeat IPC: 2.58316 cumulative IPC: 2.58207 (Simulation time: 0 hr 2 min 12 sec) 
Heartbeat CPU  0 instructions:   19000000 cycles:    8669317 heartbeat IPC: 2.28198 cumulative IPC: 2.19164 (Simulation time: 0 hr 2 min 14 sec) 
Heartbeat CPU  2 instructions:   22000001 cycles:    8827695 heartbeat IPC: 2.49197 cumulative IPC: 2.49216 (Simulation time: 0 hr 2 min 17 sec) 
Heartbeat CPU  3 instructions:   23000002 cycles:    8908909 heartbeat IPC: 2.57325 cumulative IPC: 2.58169 (Simulation time: 0 hr 2 min 18 sec) 
Heartbeat CPU  1 instructions:   21000002 cycles:    9031805 heartbeat IPC: 1.79758 cumulative IPC: 2.32512 (Simulation time: 0 hr 2 min 20 sec) 
Heartbeat CPU  0 instructions:   20000000 cycles:    9116480 heartbeat IPC: 2.23632 cumulative IPC: 2.19383 (Simulation time: 0 hr 2 min 21 sec) 
Heartbeat CPU  2 instructions:   23000000 cycles:    9230234 heartbeat IPC: 2.48423 cumulative IPC: 2.49181 (Simulation time: 0 hr 2 min 23 sec) 
Heartbeat CPU  3 instructions:   24000000 cycles:    9295956 heartbeat IPC: 2.58366 cumulative IPC: 2.58177 (Simulation time: 0 hr 2 min 24 sec) 
Heartbeat CPU  1 instructions:   22000000 cycles:    9428298 heartbeat IPC: 2.52211 cumulative IPC: 2.33340 (Simulation time: 0 hr 2 min 26 sec) 
Heartbeat CPU  0 instructions:   21000003 cycles:    9576346 heartbeat IPC: 2.17455 cumulative IPC: 2.19290 (Simulation time: 0 hr 2 min 28 sec) 
Heartbeat CPU  2 instructions:   24000000 cycles:    9631677 heartbeat IPC: 2.49101 cumulative IPC: 2.49178 (Simulation time: 0 hr 2 min 29 sec) 
Heartbeat CPU  3 instructions:   25000003 cycles:    9683798 heartbeat IPC: 2.57838 cumulative IPC: 2.58163 (Simulation time: 0 hr 2 min 30 sec) 
Heartbeat CPU  1 instructions:   23000002 cycles:    9823853 heartbeat IPC: 2.52810 cumulative IPC: 2.34124 (Simulation time: 0 hr 2 min 32 sec) 
Heartbeat CPU  0 instructions:   22000002 cycles:   10013705 heartbeat IPC: 2.28645 cumulative IPC: 2.19699 (Simulation time: 0 hr 2 min 35 sec) 
Heartbeat CPU  2 instructions:   25000000 cycles:   10034245 heartbeat IPC: 2.48405 cumulative IPC: 2.49147 (Simulation time: 0 hr 2 min 36 sec) 
Heartbeat CPU  3 instructions:   26000003 cycles:   10068047 heartbeat IPC: 2.60248 cumulative IPC: 2.58243 (Simulation time: 0 hr 2 min 36 sec) 
Heartbeat CPU  1 instructions:   24000000 cycles:   10237608 heartbeat IPC: 2.41688 cumulative IPC: 2.34430 (Simulation time: 0 hr 2 min 39 sec) 
Heartbeat CPU  2 instructions:   26000003 cycles:   10437177 heartbeat IPC: 2.48182 cumulative IPC: 2.49110 (Simulation time: 0 hr 2 min 42 sec) 
Heartbeat CPU  3 instructions:   27000000 cycles:   10457288 heartbeat IPC: 2.56909 cumulative IPC: 2.58193 (Simulation time: 0 hr 2 min 42 sec) 
Heartbeat CPU  0 instructions:   23000000 cycles:   10513313 heartbeat IPC: 2.00157 cumulative IPC: 2.18770 (Simulation time: 0 hr 2 min 43 sec) 
Heartbeat CPU  1 instructions:   25000003 cycles:   10702609 heartbeat IPC: 2.15054 cumulative IPC: 2.33588 (Simulation time: 0 hr 2 min 46 sec) 
Heartbeat CPU  2 instructions:   27000003 cycles:   10841665 heartbeat IPC: 2.47226 cumulative IPC: 2.49039 (Simulation time: 0 hr 2 min 48 sec) 
Heartbeat CPU  3 instructions:   28000000 cycles:   10845829 heartbeat IPC: 2.57373 cumulative IPC: 2.58164 (Simulation time: 0 hr 2 min 48 sec) 
Heartbeat CPU  0 instructions:   24000000 cycles:   10942714 heartbeat IPC: 2.32883 cumulative IPC: 2.19324 (Simulation time: 0 hr 2 min 50 sec) 
Heartbeat CPU  1 instructions:   26000000 cycles:   11147216 heartbeat IPC: 2.24917 cumulative IPC: 2.33242 (Simulation time: 0 hr 2 min 53 sec) 
Heartbeat CPU  3 instructions:   29000000 cycles:   11233330 heartbeat IPC: 2.58064 cumulative IPC: 2.58160 (Simulation time: 0 hr 2 min 54 sec) 
Heartbeat CPU  2 instructions:   28000000 cycles:   11247660 heartbeat IPC: 2.46308 cumulative IPC: 2.48941 (Simulation time: 0 hr 2 min 55 sec) 
Heartbeat CPU  0 instructions:   25000003 cycles:   11379560 heartbeat IPC: 2.28914 cumulative IPC: 2.19692 (Simulation time: 0 hr 2 min 57 sec) 
Heartbeat CPU  1 instructions:   27000000 cycles:   11557160 heartbeat IPC: 2.43936 cumulative IPC: 2.33621 (Simulation time: 0 hr 3 min 0 sec) 
Heartbeat CPU  3 instructions:   30000000 cycles:   11620882 heartbeat IPC: 2.58030 cumulative IPC: 2.58156 (Simulation time: 0 hr 3 min 1 sec) 
Heartbeat CPU  2 instructions:   29000000 cycles:   11647754 heartbeat IPC: 2.49941 cumulative IPC: 2.48975 (Simulation time: 0 hr 3 min 1 sec) 
Heartbeat CPU  0 instructions:   26000000 cycles:   11811110 heartbeat IPC: 2.31722 cumulative IPC: 2.20132 (Simulation time: 0 hr 3 min 4 sec) 
Heartbeat CPU  1 instructions:   28000000 cycles:   11972759 heartbeat IPC: 2.40617 cumulative IPC: 2.33864 (Simulation time: 0 hr 3 min 7 sec) 
Heartbeat CPU  3 instructions:   31000001 cycles:   12010519 heartbeat IPC: 2.56649 cumulative IPC: 2.58107 (Simulation time: 0 hr 3 min 7 sec) 
Heartbeat CPU  2 instructions:   30000002 cycles:   12050730 heartbeat IPC: 2.48154 cumulative IPC: 2.48948 (Simulation time: 0 hr 3 min 8 sec) 
Heartbeat CPU  0 instructions:   27000003 cycles:   12254492 heartbeat IPC: 2.25540 cumulative IPC: 2.20327 (Simulation time: 0 hr 3 min 11 sec) 
Heartbeat CPU  1 instructions:   29000000 cycles:   12398859 heartbeat IPC: 2.34687 cumulative IPC: 2.33892 (Simulation time: 0 hr 3 min 13 sec) 
Heartbeat CPU  3 instructions:   32000000 cycles:   12399413 heartbeat IPC: 2.57139 cumulative IPC: 2.58077 (Simulation time: 0 hr 3 min 13 sec) 
Heartbeat CPU  2 instructions:   31000003 cycles:   12452250 heartbeat IPC: 2.49054 cumulative IPC: 2.48951 (Simulation time: 0 hr 3 min 14 sec) 
Heartbeat CPU  3 instructions:   33000002 cycles:   12788342 heartbeat IPC: 2.57117 cumulative IPC: 2.58048 (Simulation time: 0 hr 3 min 19 sec) 
Heartbeat CPU  1 instructions:   30000000 cycles:   12795633 heartbeat IPC: 2.52033 cumulative IPC: 2.34455 (Simulation time: 0 hr 3 min 19 sec) 
Heartbeat CPU  2 instructions:   32000000 cycles:   12853549 heartbeat IPC: 2.49190 cumulative IPC: 2.48958 (Simulation time: 0 hr 3 min 20 sec) 
Heartbeat CPU  0 instructions:   28000000 cycles:   12855000 heartbeat IPC: 1.66525 cumulative IPC: 2.17814 (Simulation time: 0 hr 3 min 20 sec) 
Heartbeat CPU  3 instructions:   34000000 cycles:   13176488 heartbeat IPC: 2.57634 cumulative IPC: 2.58035 (Simulation time: 0 hr 3 min 25 sec) 
Heartbeat CPU  2 instructions:   33000003 cycles:   13255612 heartbeat IPC: 2.48718 cumulative IPC: 2.48951 (Simulation time: 0 hr 3 min 27 sec) 
Heartbeat CPU  1 instructions:   31000001 cycles:   13260234 heartbeat IPC: 2.15239 cumulative IPC: 2.33782 (Simulation time: 0 hr 3 min 27 sec) 
Heartbeat CPU  0 instructions:   29000003 cycles:   13292702 heartbeat IPC: 2.28467 cumulative IPC: 2.18165 (Simulation time: 0 hr 3 min 27 sec) 
Heartbeat CPU  3 instructions:   35000000 cycles:   13564533 heartbeat IPC: 2.57702 cumulative IPC: 2.58026 (Simulation time: 0 hr 3 min 32 sec) 
Heartbeat CPU  1 instructions:   32000000 cycles:   13655825 heartbeat IPC: 2.52786 cumulative IPC: 2.34332 (Simulation time: 0 hr 3 min 33 sec) 
Heartbeat CPU  2 instructions:   34000000 cycles:   13657754 heartbeat IPC: 2.48668 cumulative IPC: 2.48943 (Simulation time: 0 hr 3 min 33 sec) 
Heartbeat CPU  0 instructions:   30000000 cycles:   13729553 heartbeat IPC: 2.28910 cumulative IPC: 2.18507 (Simulation time: 0 hr 3 min 34 sec) 
Heartbeat CPU  3 instructions:   36000000 cycles:   13953925 heartbeat IPC: 2.56811 cumulative IPC: 2.57992 (Simulation time: 0 hr 3 min 38 sec) 
Heartbeat CPU  1 instructions:   33000001 cycles:   14051281 heartbeat IPC: 2.52873 cumulative IPC: 2.34854 (Simulation time: 0 hr 3 min 40 sec) 
Heartbeat CPU  2 instructions:   35000001 cycles:   14059738 heartbeat IPC: 2.48766 cumulative IPC: 2.48938 (Simulation time: 0 hr 3 min 40 sec) 
Heartbeat CPU  0 instructions:   31000002 cycles:   14174364 heartbeat IPC: 2.24815 cumulative IPC: 2.18705 (Simulation time: 0 hr 3 min 42 sec) 
Heartbeat CPU  3 instructions:   37000000 cycles:   14340505 heartbeat IPC: 2.58679 cumulative IPC: 2.58010 (Simulation time: 0 hr 3 min 44 sec) 
Heartbeat CPU  1 instructions:   34000003 cycles:   14447044 heartbeat IPC: 2.52677 cumulative IPC: 2.35342 (Simulation time: 0 hr 3 min 46 sec) 
Heartbeat CPU  2 instructions:   36000000 cycles:   14461537 heartbeat IPC: 2.48880 cumulative IPC: 2.48936 (Simulation time: 0 hr 3 min 46 sec) 
Heartbeat CPU  0 instructions:   32000000 cycles:   14633774 heartbeat IPC: 2.17670 cumulative IPC: 2.18672 (Simulation time: 0 hr 3 min 49 sec) 
Heartbeat CPU  3 instructions:   38000003 cycles:   14728983 heartbeat IPC: 2.57416 cumulative IPC: 2.57995 (Simulation time: 0 hr 3 min 51 sec) 
Heartbeat CPU  1 instructions:   35000002 cycles:   14841293 heartbeat IPC: 2.53647 cumulative IPC: 2.35829 (Simulation time: 0 hr 3 min 52 sec) 
Heartbeat CPU  2 instructions:   37000000 cycles:   14862358 heartbeat IPC: 2.49488 cumulative IPC: 2.48951 (Simulation time: 0 hr 3 min 53 sec) 
Heartbeat CPU  0 instructions:   33000001 cycles:   15064555 heartbeat IPC: 2.32137 cumulative IPC: 2.19057 (Simulation time: 0 hr 3 min 56 sec) 
Heartbeat CPU  3 instructions:   39000002 cycles:   15116392 heartbeat IPC: 2.58125 cumulative IPC: 2.57998 (Simulation time: 0 hr 3 min 56 sec) 
Heartbeat CPU  2 instructions:   38000003 cycles:   15262509 heartbeat IPC: 2.49906 cumulative IPC: 2.48976 (Simulation time: 0 hr 3 min 59 sec) 
Heartbeat CPU  1 instructions:   36000000 cycles:   15398408 heartbeat IPC: 1.79496 cumulative IPC: 2.33790 (Simulation time: 0 hr 4 min 1 sec) 
Heartbeat CPU  3 instructions:   40000000 cycles:   15504343 heartbeat IPC: 2.57764 cumulative IPC: 2.57992 (Simulation time: 0 hr 4 min 3 sec) 
Heartbeat CPU  0 instructions:   34000000 cycles:   15509150 heartbeat IPC: 2.24924 cumulative IPC: 2.19225 (Simulation time: 0 hr 4 min 3 sec) 
Heartbeat CPU  2 instructions:   39000000 cycles:   15664573 heartbeat IPC: 2.48716 cumulative IPC: 2.48969 (Simulation time: 0 hr 4 min 5 sec) 
Heartbeat CPU  1 instructions:   37000000 cycles:   15796990 heartbeat IPC: 2.50889 cumulative IPC: 2.34222 (Simulation time: 0 hr 4 min 7 sec) 
Heartbeat CPU  3 instructions:   41000000 cycles:   15887222 heartbeat IPC: 2.61179 cumulative IPC: 2.58069 (Simulation time: 0 hr 4 min 9 sec) 
Heartbeat CPU  0 instructions:   35000003 cycles:   15973793 heartbeat IPC: 2.15220 cumulative IPC: 2.19109 (Simulation time: 0 hr 4 min 10 sec) 
Heartbeat CPU  2 instructions:   40000000 cycles:   16066058 heartbeat IPC: 2.49075 cumulative IPC: 2.48972 (Simulation time: 0 hr 4 min 12 sec) 
Heartbeat CPU  1 instructions:   38000000 cycles:   16191611 heartbeat IPC: 2.53408 cumulative IPC: 2.34689 (Simulation time: 0 hr 4 min 14 sec) 
Heartbeat CPU  3 instructions:   42000003 cycles:   16271158 heartbeat IPC: 2.60461 cumulative IPC: 2.58125 (Simulation time: 0 hr 4 min 15 sec) 
Heartbeat CPU  0 instructions:   36000000 cycles:   16407017 heartbeat IPC: 2.30827 cumulative IPC: 2.19418 (Simulation time: 0 hr 4 min 17 sec) 
Heartbeat CPU  2 instructions:   41000000 cycles:   16465964 heartbeat IPC: 2.50059 cumulative IPC: 2.48998 (Simulation time: 0 hr 4 min 18 sec) 
Heartbeat CPU  1 instructions:   39000000 cycles:   16619514 heartbeat IPC: 2.33698 cumulative IPC: 2.34664 (Simulation time: 0 hr 4 min 21 sec) 
Heartbeat CPU  3 instructions:   43000002 cycles:   16659395 heartbeat IPC: 2.57574 cumulative IPC: 2.58113 (Simulation time: 0 hr 4 min 21 sec) 
Heartbeat CPU  0 instructions:   37000000 cycles:   16840891 heartbeat IPC: 2.30482 cumulative IPC: 2.19703 (Simulation time: 0 hr 4 min 24 sec) 
Heartbeat CPU  2 instructions:   42000002 cycles:   16867165 heartbeat IPC: 2.49252 cumulative IPC: 2.49005 (Simulation time: 0 hr 4 min 25 sec) 
Heartbeat CPU  3 instructions:   44000000 cycles:   17047563 heartbeat IPC: 2.57620 cumulative IPC: 2.58101 (Simulation time: 0 hr 4 min 27 sec) 
Heartbeat CPU  1 instructions:   40000000 cycles:   17087784 heartbeat IPC: 2.13552 cumulative IPC: 2.34085 (Simulation time: 0 hr 4 min 28 sec) 
Heartbeat CPU  2 instructions:   43000000 cycles:   17268614 heartbeat IPC: 2.49097 cumulative IPC: 2.49007 (Simulation time: 0 hr 4 min 31 sec) 
Heartbeat CPU  0 instructions:   38000003 cycles:   17339459 heartbeat IPC: 2.00575 cumulative IPC: 2.19153 (Simulation time: 0 hr 4 min 32 sec) 
Heartbeat CPU  3 instructions:   45000003 cycles:   17436363 heartbeat IPC: 2.57202 cumulative IPC: 2.58081 (Simulation time: 0 hr 4 min 33 sec) 
Heartbeat CPU  1 instructions:   41000002 cycles:   17516242 heartbeat IPC: 2.33396 cumulative IPC: 2.34068 (Simulation time: 0 hr 4 min 35 sec) 
Heartbeat CPU  2 instructions:   44000000 cycles:   17670646 heartbeat IPC: 2.48736 cumulative IPC: 2.49001 (Simulation time: 0 hr 4 min 37 sec) 
Heartbeat CPU  0 instructions:   39000003 cycles:   17767963 heartbeat IPC: 2.33370 cumulative IPC: 2.19496 (Simulation time: 0 hr 4 min 39 sec) 
Heartbeat CPU  3 instructions:   46000003 cycles:   17824262 heartbeat IPC: 2.57799 cumulative IPC: 2.58075 (Simulation time: 0 hr 4 min 40 sec) 
Heartbeat CPU  1 instructions:   42000001 cycles:   17935202 heartbeat IPC: 2.38686 cumulative IPC: 2.34176 (Simulation time: 0 hr 4 min 41 sec) 
Heartbeat CPU  2 instructions:   45000002 cycles:   18072380 heartbeat IPC: 2.48921 cumulative IPC: 2.48999 (Simulation time: 0 hr 4 min 44 sec) 
Heartbeat CPU  0 instructions:   40000000 cycles:   18206135 heartbeat IPC: 2.28220 cumulative IPC: 2.19706 (Simulation time: 0 hr 4 min 46 sec) 
Heartbeat CPU  3 instructions:   47000000 cycles:   18212595 heartbeat IPC: 2.57510 cumulative IPC: 2.58063 (Simulation time: 0 hr 4 min 46 sec) 
Heartbeat CPU  1 instructions:   43000000 cycles:   18349507 heartbeat IPC: 2.41368 cumulative IPC: 2.34339 (Simulation time: 0 hr 4 min 48 sec) 
Heartbeat CPU  2 instructions:   46000003 cycles:   18475015 heartbeat IPC: 2.48364 cumulative IPC: 2.48985 (Simulation time: 0 hr 4 min 50 sec) 
Heartbeat CPU  3 instructions:   48000000 cycles:   18601480 heartbeat IPC: 2.57145 cumulative IPC: 2.58044 (Simulation time: 0 hr 4 min 52 sec) 
Heartbeat CPU  0 instructions:   41000000 cycles:   18637759 heartbeat IPC: 2.31683 cumulative IPC: 2.19984 (Simulation time: 0 hr 4 min 53 sec) 
Heartbeat CPU  1 instructions:   44000000 cycles:   18763090 heartbeat IPC: 2.41789 cumulative IPC: 2.34503 (Simulation time: 0 hr 4 min 55 sec) 
Heartbeat CPU  2 instructions:   47000000 cycles:   18878127 heartbeat IPC: 2.48069 cumulative IPC: 2.48965 (Simulation time: 0 hr 4 min 57 sec) 
Heartbeat CPU  3 instructions:   49000000 cycles:   18988906 heartbeat IPC: 2.58114 cumulative IPC: 2.58045 (Simulation time: 0 hr 4 min 59 sec) 
Heartbeat CPU  1 instructions:   45000001 cycles:   19165340 heartbeat IPC: 2.48602 cumulative IPC: 2.34799 (Simulation time: 0 hr 5 min 1 sec) 
Heartbeat CPU  0 instructions:   42000001 cycles:   19218634 heartbeat IPC: 1.72154 cumulative IPC: 2.18538 (Simulation time: 0 hr 5 min 2 sec) 
Heartbeat CPU  2 instructions:   48000000 cycles:   19280985 heartbeat IPC: 2.48226 cumulative IPC: 2.48950 (Simulation time: 0 hr 5 min 3 sec) 
Heartbeat CPU  3 instructions:   50000001 cycles:   19375827 heartbeat IPC: 2.58451 cumulative IPC: 2.58054 (Simulation time: 0 hr 5 min 4 sec) 
Heartbeat CPU  1 instructions:   46000000 cycles:   19630839 heartbeat IPC: 2.14823 cumulative IPC: 2.34325 (Simulation time: 0 hr 5 min 8 sec) 
Heartbeat CPU  0 instructions:   43000003 cycles:   19675241 heartbeat IPC: 2.19007 cumulative IPC: 2.18549 (Simulation time: 0 hr 5 min 9 sec) 
Heartbeat CPU  2 instructions:   49000001 cycles:   19684316 heartbeat IPC: 2.47936 cumulative IPC: 2.48929 (Simulation time: 0 hr 5 min 9 sec) 
Heartbeat CPU  3 instructions:   51000003 cycles:   19763601 heartbeat IPC: 2.57883 cumulative IPC: 0.05060 (Simulation time: 0 hr 5 min 10 sec) 
Heartbeat CPU  1 instructions:   47000000 cycles:   20038864 heartbeat IPC: 2.45083 cumulative IPC: 2.34544 (Simulation time: 0 hr 5 min 15 sec) 
Heartbeat CPU  2 instructions:   50000003 cycles:   20085774 heartbeat IPC: 2.49093 cumulative IPC: 2.48932 (Simulation time: 0 hr 5 min 16 sec) 
Heartbeat CPU  0 instructions:   44000000 cycles:   20113575 heartbeat IPC: 2.28136 cumulative IPC: 2.18758 (Simulation time: 0 hr 5 min 16 sec) 
Heartbeat CPU  3 instructions:   52000000 cycles:   20149351 heartbeat IPC: 2.59234 cumulative IPC: 0.09926 (Simulation time: 0 hr 5 min 17 sec) 
Heartbeat CPU  1 instructions:   48000000 cycles:   20433683 heartbeat IPC: 2.53281 cumulative IPC: 2.34906 (Simulation time: 0 hr 5 min 22 sec) 
Heartbeat CPU  2 instructions:   51000002 cycles:   20489154 heartbeat IPC: 2.47905 cumulative IPC: 0.04881 (Simulation time: 0 hr 5 min 22 sec) 
Heartbeat CPU  3 instructions:   53000003 cycles:   20537356 heartbeat IPC: 2.57729 cumulative IPC: 0.14608 (Simulation time: 0 hr 5 min 23 sec) 
Heartbeat CPU  0 instructions:   45000000 cycles:   20541728 heartbeat IPC: 2.33561 cumulative IPC: 2.19066 (Simulation time: 0 hr 5 min 23 sec) 
Heartbeat CPU  1 instructions:   49000002 cycles:   20830093 heartbeat IPC: 2.52265 cumulative IPC: 2.35237 (Simulation time: 0 hr 5 min 28 sec) 
Heartbeat CPU  2 instructions:   52000000 cycles:   20907243 heartbeat IPC: 2.39183 cumulative IPC: 0.09566 (Simulation time: 0 hr 5 min 29 sec) 
Heartbeat CPU  3 instructions:   54000000 cycles:   20925100 heartbeat IPC: 2.57901 cumulative IPC: 0.19116 (Simulation time: 0 hr 5 min 29 sec) 
Heartbeat CPU  0 instructions:   46000001 cycles:   21005275 heartbeat IPC: 2.15728 cumulative IPC: 2.18993 (Simulation time: 0 hr 5 min 31 sec) 
Heartbeat CPU  1 instructions:   50000000 cycles:   21224436 heartbeat IPC: 2.53586 cumulative IPC: 2.35578 (Simulation time: 0 hr 5 min 34 sec) 
Heartbeat CPU  2 instructions:   53000001 cycles:   21309501 heartbeat IPC: 2.48597 cumulative IPC: 0.14078 (Simulation time: 0 hr 5 min 35 sec) 
Heartbeat CPU  3 instructions:   55000001 cycles:   21313661 heartbeat IPC: 2.57360 cumulative IPC: 0.23459 (Simulation time: 0 hr 5 min 35 sec) 
Heartbeat CPU  0 instructions:   47000001 cycles:   21464513 heartbeat IPC: 2.17752 cumulative IPC: 2.18966 (Simulation time: 0 hr 5 min 37 sec) 
Heartbeat CPU  3 instructions:   56000000 cycles:   21702093 heartbeat IPC: 2.57445 cumulative IPC: 0.27647 (Simulation time: 0 hr 5 min 41 sec) 
Heartbeat CPU  2 instructions:   54000001 cycles:   21704089 heartbeat IPC: 2.53429 cumulative IPC: 0.18430 (Simulation time: 0 hr 5 min 41 sec) 
Heartbeat CPU  1 instructions:   51000003 cycles:   21782174 heartbeat IPC: 1.79296 cumulative IPC: 0.04591 (Simulation time: 0 hr 5 min 43 sec) 
Heartbeat CPU  0 instructions:   48000000 cycles:   21899118 heartbeat IPC: 2.30094 cumulative IPC: 2.19187 (Simulation time: 0 hr 5 min 45 sec) 
Heartbeat CPU  3 instructions:   57000003 cycles:   22090499 heartbeat IPC: 2.57463 cumulative IPC: 0.31688 (Simulation time: 0 hr 5 min 48 sec) 
Heartbeat CPU  2 instructions:   55000003 cycles:   22092072 heartbeat IPC: 2.57744 cumulative IPC: 0.22633 (Simulation time: 0 hr 5 min 48 sec) 
Heartbeat CPU  1 instructions:   52000000 cycles:   22179154 heartbeat IPC: 2.51901 cumulative IPC: 0.09017 (Simulation time: 0 hr 5 min 49 sec) 
Heartbeat CPU  0 instructions:   49000001 cycles:   22340880 heartbeat IPC: 2.26366 cumulative IPC: 2.19329 (Simulation time: 0 hr 5 min 52 sec) 
Heartbeat CPU  3 instructions:   58000002 cycles:   22478615 heartbeat IPC: 2.57655 cumulative IPC: 0.35589 (Simulation time: 0 hr 5 min 54 sec) 
Heartbeat CPU  2 instructions:   56000000 cycles:   22482520 heartbeat IPC: 2.56115 cumulative IPC: 0.26687 (Simulation time: 0 hr 5 min 54 sec) 
Heartbeat CPU  1 instructions:   53000001 cycles:   22575503 heartbeat IPC: 2.52303 cumulative IPC: 0.13289 (Simulation time: 0 hr 5 min 56 sec) 
Heartbeat CPU  0 instructions:   50000001 cycles:   22805440 heartbeat IPC: 2.15257 cumulative IPC: 2.19246 (Simulation time: 0 hr 6 min 0 sec) 

Warmup complete CPU  0 instructions:   50000001 cycles:   22805440 (Simulation time: 0 hr 6 min 0 sec) 
Warmup complete CPU  1 instructions:   53546756 cycles:   22805440 (Simulation time: 0 hr 6 min 0 sec) 
Warmup complete CPU  2 instructions:   56829431 cycles:   22805440 (Simulation time: 0 hr 6 min 0 sec) 
Warmup complete CPU  3 instructions:   58842247 cycles:   22805439 (Simulation time: 0 hr 6 min 0 sec) 

Heartbeat CPU  3 instructions:   59000003 cycles:   23798844 heartbeat IPC: 0.75745 cumulative IPC: 0.15880 (Simulation time: 0 hr 6 min 1 sec) 
Heartbeat CPU  2 instructions:   57000000 cycles:   23911614 heartbeat IPC: 0.69974 cumulative IPC: 0.15420 (Simulation time: 0 hr 6 min 1 sec) 
Heartbeat CPU  1 instructions:   54000001 cycles:   24896609 heartbeat IPC: 0.43083 cumulative IPC: 0.21674 (Simulation time: 0 hr 6 min 3 sec) 
Heartbeat CPU  1 instructions:   55000001 cycles:   29733394 heartbeat IPC: 0.20675 cumulative IPC: 0.20977 (Simulation time: 0 hr 6 min 11 sec) 
Heartbeat CPU  3 instructions:   60000000 cycles:   30055030 heartbeat IPC: 0.15984 cumulative IPC: 0.15970 (Simulation time: 0 hr 6 min 12 sec) 
Heartbeat CPU  2 instructions:   58000001 cycles:   30385919 heartbeat IPC: 0.15446 cumulative IPC: 0.15442 (Simulation time: 0 hr 6 min 12 sec) 
Heartbeat CPU  0 instructions:   51000000 cycles:   31205377 heartbeat IPC: 0.11905 cumulative IPC: 0.11905 (Simulation time: 0 hr 6 min 13 sec) 
Heartbeat CPU  3 instructions:   61000001 cycles:   36309464 heartbeat IPC: 0.15989 cumulative IPC: 0.15979 (Simulation time: 0 hr 6 min 21 sec) 
Heartbeat CPU  2 instructions:   59000001 cycles:   36848863 heartbeat IPC: 0.15473 cumulative IPC: 0.15456 (Simulation time: 0 hr 6 min 21 sec) 
Heartbeat CPU  1 instructions:   56000000 cycles:   37053515 heartbeat IPC: 0.13661 cumulative IPC: 0.17218 (Simulation time: 0 hr 6 min 22 sec) 
Heartbeat CPU  0 instructions:   52000000 cycles:   39590789 heartbeat IPC: 0.11925 cumulative IPC: 0.11915 (Simulation time: 0 hr 6 min 25 sec) 
Heartbeat CPU  3 instructions:   62000000 cycles:   42601288 heartbeat IPC: 0.15894 cumulative IPC: 0.15952 (Simulation time: 0 hr 6 min 30 sec) 
Heartbeat CPU  2 instructions:   60000000 cycles:   43329747 heartbeat IPC: 0.15430 cumulative IPC: 0.15448 (Simulation time: 0 hr 6 min 31 sec) 
Heartbeat CPU  1 instructions:   57000000 cycles:   45293940 heartbeat IPC: 0.12135 cumulative IPC: 0.15356 (Simulation time: 0 hr 6 min 34 sec) 
Heartbeat CPU  0 instructions:   53000003 cycles:   47942132 heartbeat IPC: 0.11974 cumulative IPC: 0.11935 (Simulation time: 0 hr 6 min 37 sec) 
Heartbeat CPU  3 instructions:   63000003 cycles:   48911240 heartbeat IPC: 0.15848 cumulative IPC: 0.15927 (Simulation time: 0 hr 6 min 39 sec) 
Heartbeat CPU  2 instructions:   61000000 cycles:   49815449 heartbeat IPC: 0.15419 cumulative IPC: 0.15441 (Simulation time: 0 hr 6 min 40 sec) 
Heartbeat CPU  1 instructions:   58000003 cycles:   53524798 heartbeat IPC: 0.12149 cumulative IPC: 0.14497 (Simulation time: 0 hr 6 min 45 sec) 
Heartbeat CPU  3 instructions:   64000000 cycles:   55218912 heartbeat IPC: 0.15854 cumulative IPC: 0.15912 (Simulation time: 0 hr 6 min 48 sec) 
Heartbeat CPU  2 instructions:   62000000 cycles:   56309803 heartbeat IPC: 0.15398 cumulative IPC: 0.15433 (Simulation time: 0 hr 6 min 49 sec) 
Heartbeat CPU  0 instructions:   54000002 cycles:   56347382 heartbeat IPC: 0.11897 cumulative IPC: 0.11925 (Simulation time: 0 hr 6 min 49 sec) 
Heartbeat CPU  3 instructions:   65000001 cycles:   61523644 heartbeat IPC: 0.15861 cumulative IPC: 0.15904 (Simulation time: 0 hr 6 min 57 sec) 
Heartbeat CPU  1 instructions:   59000003 cycles:   61834648 heartbeat IPC: 0.12034 cumulative IPC: 0.13972 (Simulation time: 0 hr 6 min 57 sec) 
Heartbeat CPU  2 instructions:   63000002 cycles:   62798844 heartbeat IPC: 0.15411 cumulative IPC: 0.15429 (Simulation time: 0 hr 6 min 59 sec) 
Heartbeat CPU  0 instructions:   55000002 cycles:   64796410 heartbeat IPC: 0.11836 cumulative IPC: 0.11907 (Simulation time: 0 hr 7 min 1 sec) 
Heartbeat CPU  3 instructions:   66000002 cycles:   67841559 heartbeat IPC: 0.15828 cumulative IPC: 0.15893 (Simulation time: 0 hr 7 min 6 sec) 
Heartbeat CPU  2 instructions:   64000000 cycles:   69288113 heartbeat IPC: 0.15410 cumulative IPC: 0.15426 (Simulation time: 0 hr 7 min 8 sec) 
Heartbeat CPU  1 instructions:   60000000 cycles:   70194440 heartbeat IPC: 0.11962 cumulative IPC: 0.13618 (Simulation time: 0 hr 7 min 9 sec) 
Heartbeat CPU  0 instructions:   56000000 cycles:   73237028 heartbeat IPC: 0.11847 cumulative IPC: 0.11897 (Simulation time: 0 hr 7 min 14 sec) 
Heartbeat CPU  3 instructions:   67000002 cycles:   74227495 heartbeat IPC: 0.15659 cumulative IPC: 0.15864 (Simulation time: 0 hr 7 min 15 sec) 
Heartbeat CPU  2 instructions:   65000000 cycles:   75745623 heartbeat IPC: 0.15486 cumulative IPC: 0.15434 (Simulation time: 0 hr 7 min 17 sec) 
Heartbeat CPU  1 instructions:   61000003 cycles:   78479153 heartbeat IPC: 0.12070 cumulative IPC: 0.13387 (Simulation time: 0 hr 7 min 21 sec) 
Heartbeat CPU  3 instructions:   68000000 cycles:   80583554 heartbeat IPC: 0.15733 cumulative IPC: 0.15850 (Simulation time: 0 hr 7 min 24 sec) 
Heartbeat CPU  0 instructions:   57000002 cycles:   81918955 heartbeat IPC: 0.11518 cumulative IPC: 0.11842 (Simulation time: 0 hr 7 min 26 sec) 
Heartbeat CPU  2 instructions:   66000001 cycles:   82239869 heartbeat IPC: 0.15398 cumulative IPC: 0.15430 (Simulation time: 0 hr 7 min 27 sec) 
Heartbeat CPU  1 instructions:   62000003 cycles:   86770507 heartbeat IPC: 0.12061 cumulative IPC: 0.13215 (Simulation time: 0 hr 7 min 33 sec) 
Heartbeat CPU  3 instructions:   69000000 cycles:   86925827 heartbeat IPC: 0.15767 cumulative IPC: 0.15842 (Simulation time: 0 hr 7 min 34 sec) 
Heartbeat CPU  2 instructions:   67000000 cycles:   88702438 heartbeat IPC: 0.15474 cumulative IPC: 0.15434 (Simulation time: 0 hr 7 min 36 sec) 
Heartbeat CPU  0 instructions:   58000000 cycles:   90383151 heartbeat IPC: 0.11814 cumulative IPC: 0.11838 (Simulation time: 0 hr 7 min 39 sec) 
Heartbeat CPU  3 instructions:   70000002 cycles:   93282615 heartbeat IPC: 0.15731 cumulative IPC: 0.15832 (Simulation time: 0 hr 7 min 43 sec) 
Heartbeat CPU  1 instructions:   63000003 cycles:   95095792 heartbeat IPC: 0.12012 cumulative IPC: 0.13077 (Simulation time: 0 hr 7 min 45 sec) 
Heartbeat CPU  2 instructions:   68000000 cycles:   95166983 heartbeat IPC: 0.15469 cumulative IPC: 0.15437 (Simulation time: 0 hr 7 min 45 sec) 
Heartbeat CPU  0 instructions:   59000003 cycles:   98910090 heartbeat IPC: 0.11728 cumulative IPC: 0.11826 (Simulation time: 0 hr 7 min 51 sec) 
Heartbeat CPU  3 instructions:   71000002 cycles:   99626721 heartbeat IPC: 0.15763 cumulative IPC: 0.15826 (Simulation time: 0 hr 7 min 52 sec) 
Heartbeat CPU  2 instructions:   69000002 cycles:  101636068 heartbeat IPC: 0.15458 cumulative IPC: 0.15439 (Simulation time: 0 hr 7 min 55 sec) 
Heartbeat CPU  1 instructions:   64000000 cycles:  103446706 heartbeat IPC: 0.11975 cumulative IPC: 0.12963 (Simulation time: 0 hr 7 min 57 sec) 
Heartbeat CPU  3 instructions:   72000000 cycles:  105991742 heartbeat IPC: 0.15711 cumulative IPC: 0.15817 (Simulation time: 0 hr 8 min 1 sec) 
Heartbeat CPU  0 instructions:   60000000 cycles:  106712714 heartbeat IPC: 0.12816 cumulative IPC: 0.11918 (Simulation time: 0 hr 8 min 2 sec) 
Heartbeat CPU  2 instructions:   70000003 cycles:  108085961 heartbeat IPC: 0.15504 cumulative IPC: 0.15444 (Simulation time: 0 hr 8 min 4 sec) 
Heartbeat CPU  0 instructions:   61000001 cycles:  111245127 heartbeat IPC: 0.22063 cumulative IPC: 0.12438 (Simulation time: 0 hr 8 min 10 sec) 
Heartbeat CPU  1 instructions:   65000001 cycles:  111939594 heartbeat IPC: 0.11775 cumulative IPC: 0.12849 (Simulation time: 0 hr 8 min 11 sec) 
Heartbeat CPU  3 instructions:   73000001 cycles:  112345155 heartbeat IPC: 0.15740 cumulative IPC: 0.15812 (Simulation time: 0 hr 8 min 12 sec) 
Heartbeat CPU  2 instructions:   71000000 cycles:  114594365 heartbeat IPC: 0.15365 cumulative IPC: 0.15438 (Simulation time: 0 hr 8 min 15 sec) 
Heartbeat CPU  0 instructions:   62000001 cycles:  117042892 heartbeat IPC: 0.17248 cumulative IPC: 0.12734 (Simulation time: 0 hr 8 min 19 sec) 
Heartbeat CPU  3 instructions:   74000002 cycles:  118698160 heartbeat IPC: 0.15741 cumulative IPC: 0.15807 (Simulation time: 0 hr 8 min 21 sec) 
Heartbeat CPU  1 instructions:   66000002 cycles:  120290906 heartbeat IPC: 0.11974 cumulative IPC: 0.12774 (Simulation time: 0 hr 8 min 23 sec) 
Heartbeat CPU  2 instructions:   72000000 cycles:  121031068 heartbeat IPC: 0.15536 cumulative IPC: 0.15445 (Simulation time: 0 hr 8 min 24 sec) 
Heartbeat CPU  3 instructions:   75000000 cycles:  125070808 heartbeat IPC: 0.15692 cumulative IPC: 0.15800 (Simulation time: 0 hr 8 min 30 sec) 
Heartbeat CPU  0 instructions:   63000001 cycles:  125416123 heartbeat IPC: 0.11943 cumulative IPC: 0.12669 (Simulation time: 0 hr 8 min 31 sec) 
Heartbeat CPU  2 instructions:   73000003 cycles:  127493929 heartbeat IPC: 0.15473 cumulative IPC: 0.15446 (Simulation time: 0 hr 8 min 34 sec) 
Heartbeat CPU  1 instructions:   67000002 cycles:  128710543 heartbeat IPC: 0.11877 cumulative IPC: 0.12703 (Simulation time: 0 hr 8 min 35 sec) 
Heartbeat CPU  3 instructions:   76000000 cycles:  131460129 heartbeat IPC: 0.15651 cumulative IPC: 0.15791 (Simulation time: 0 hr 8 min 39 sec) 
Heartbeat CPU  0 instructions:   64000000 cycles:  133716076 heartbeat IPC: 0.12048 cumulative IPC: 0.12623 (Simulation time: 0 hr 8 min 42 sec) 
Heartbeat CPU  2 instructions:   74000000 cycles:  133942097 heartbeat IPC: 0.15508 cumulative IPC: 0.15450 (Simulation time: 0 hr 8 min 43 sec) 
Heartbeat CPU  1 instructions:   68000000 cycles:  137173250 heartbeat IPC: 0.11817 cumulative IPC: 0.12638 (Simulation time: 0 hr 8 min 47 sec) 
Heartbeat CPU  3 instructions:   77000001 cycles:  137836572 heartbeat IPC: 0.15683 cumulative IPC: 0.15785 (Simulation time: 0 hr 8 min 48 sec) 
Heartbeat CPU  2 instructions:   75000003 cycles:  140437761 heartbeat IPC: 0.15395 cumulative IPC: 0.15447 (Simulation time: 0 hr 8 min 52 sec) 
Heartbeat CPU  0 instructions:   65000003 cycles:  142035168 heartbeat IPC: 0.12021 cumulative IPC: 0.12581 (Simulation time: 0 hr 8 min 55 sec) 
Heartbeat CPU  1 instructions:   69000001 cycles:  142298666 heartbeat IPC: 0.19511 cumulative IPC: 0.12932 (Simulation time: 0 hr 8 min 56 sec) 
Heartbeat CPU  3 instructions:   78000002 cycles:  144195467 heartbeat IPC: 0.15726 cumulative IPC: 0.15782 (Simulation time: 0 hr 8 min 59 sec) 
Heartbeat CPU  2 instructions:   76000000 cycles:  146939336 heartbeat IPC: 0.15381 cumulative IPC: 0.15443 (Simulation time: 0 hr 9 min 3 sec) 
Heartbeat CPU  1 instructions:   70000002 cycles:  147404727 heartbeat IPC: 0.19585 cumulative IPC: 0.13205 (Simulation time: 0 hr 9 min 4 sec) 
Heartbeat CPU  0 instructions:   66000000 cycles:  150437518 heartbeat IPC: 0.11901 cumulative IPC: 0.12536 (Simulation time: 0 hr 9 min 8 sec) 
Heartbeat CPU  3 instructions:   79000000 cycles:  150525285 heartbeat IPC: 0.15798 cumulative IPC: 0.15783 (Simulation time: 0 hr 9 min 8 sec) 
Heartbeat CPU  2 instructions:   77000001 cycles:  153422169 heartbeat IPC: 0.15425 cumulative IPC: 0.15443 (Simulation time: 0 hr 9 min 13 sec) 
Heartbeat CPU  1 instructions:   71000001 cycles:  155156715 heartbeat IPC: 0.12900 cumulative IPC: 0.13187 (Simulation time: 0 hr 9 min 15 sec) 
Heartbeat CPU  3 instructions:   80000000 cycles:  156879036 heartbeat IPC: 0.15739 cumulative IPC: 0.15781 (Simulation time: 0 hr 9 min 18 sec) 
Heartbeat CPU  0 instructions:   67000002 cycles:  158739225 heartbeat IPC: 0.12046 cumulative IPC: 0.12506 (Simulation time: 0 hr 9 min 20 sec) 
Heartbeat CPU  2 instructions:   78000001 cycles:  159944824 heartbeat IPC: 0.15331 cumulative IPC: 0.15437 (Simulation time: 0 hr 9 min 22 sec) 
Heartbeat CPU  3 instructions:   81000001 cycles:  163246944 heartbeat IPC: 0.15704 cumulative IPC: 0.15777 (Simulation time: 0 hr 9 min 27 sec) 
Heartbeat CPU  1 instructions:   72000000 cycles:  163409579 heartbeat IPC: 0.12117 cumulative IPC: 0.13124 (Simulation time: 0 hr 9 min 27 sec) 
Heartbeat CPU  2 instructions:   79000000 cycles:  166430156 heartbeat IPC: 0.15419 cumulative IPC: 0.15436 (Simulation time: 0 hr 9 min 31 sec) 
Heartbeat CPU  0 instructions:   68000000 cycles:  167115214 heartbeat IPC: 0.11939 cumulative IPC: 0.12473 (Simulation time: 0 hr 9 min 32 sec) 
Heartbeat CPU  3 instructions:   82000000 cycles:  169606615 heartbeat IPC: 0.15724 cumulative IPC: 0.15775 (Simulation time: 0 hr 9 min 36 sec) 
Heartbeat CPU  1 instructions:   73000000 cycles:  171613695 heartbeat IPC: 0.12189 cumulative IPC: 0.13073 (Simulation time: 0 hr 9 min 39 sec) 
Heartbeat CPU  2 instructions:   80000000 cycles:  172893253 heartbeat IPC: 0.15472 cumulative IPC: 0.15438 (Simulation time: 0 hr 9 min 41 sec) 
Heartbeat CPU  0 instructions:   69000002 cycles:  175556170 heartbeat IPC: 0.11847 cumulative IPC: 0.12439 (Simulation time: 0 hr 9 min 44 sec) 
Heartbeat CPU  3 instructions:   83000001 cycles:  175944056 heartbeat IPC: 0.15779 cumulative IPC: 0.15775 (Simulation time: 0 hr 9 min 45 sec) 
Heartbeat CPU  2 instructions:   81000001 cycles:  179373326 heartbeat IPC: 0.15432 cumulative IPC: 0.15438 (Simulation time: 0 hr 9 min 50 sec) 
Heartbeat CPU  1 instructions:   74000000 cycles:  179876583 heartbeat IPC: 0.12102 cumulative IPC: 0.13022 (Simulation time: 0 hr 9 min 50 sec) 
Heartbeat CPU  3 instructions:   84000000 cycles:  182281806 heartbeat IPC: 0.15778 cumulative IPC: 0.15775 (Simulation time: 0 hr 9 min 54 sec) 
Heartbeat CPU  0 instructions:   70000003 cycles:  184008626 heartbeat IPC: 0.11831 cumulative IPC: 0.12407 (Simulation time: 0 hr 9 min 56 sec) 
Heartbeat CPU  2 instructions:   82000000 cycles:  185818111 heartbeat IPC: 0.15516 cumulative IPC: 0.15441 (Simulation time: 0 hr 9 min 59 sec) 
Heartbeat CPU  1 instructions:   75000000 cycles:  188059754 heartbeat IPC: 0.12220 cumulative IPC: 0.12982 (Simulation time: 0 hr 10 min 2 sec) 
Heartbeat CPU  3 instructions:   85000000 cycles:  188647141 heartbeat IPC: 0.15710 cumulative IPC: 0.15773 (Simulation time: 0 hr 10 min 3 sec) 
Heartbeat CPU  2 instructions:   83000001 cycles:  192307926 heartbeat IPC: 0.15409 cumulative IPC: 0.15440 (Simulation time: 0 hr 10 min 8 sec) 
Heartbeat CPU  0 instructions:   71000002 cycles:  192479010 heartbeat IPC: 0.11806 cumulative IPC: 0.12377 (Simulation time: 0 hr 10 min 8 sec) 
Heartbeat CPU  3 instructions:   86000000 cycles:  195015527 heartbeat IPC: 0.15703 cumulative IPC: 0.15770 (Simulation time: 0 hr 10 min 12 sec) 
Heartbeat CPU  1 instructions:   76000000 cycles:  196485473 heartbeat IPC: 0.11868 cumulative IPC: 0.12928 (Simulation time: 0 hr 10 min 14 sec) 
Heartbeat CPU  2 instructions:   84000000 cycles:  198792510 heartbeat IPC: 0.15421 cumulative IPC: 0.15439 (Simulation time: 0 hr 10 min 17 sec) 
Heartbeat CPU  0 instructions:   72000000 cycles:  201163581 heartbeat IPC: 0.11515 cumulative IPC: 0.12335 (Simulation time: 0 hr 10 min 21 sec) 
Heartbeat CPU  3 instructions:   87000000 cycles:  201382251 heartbeat IPC: 0.15707 cumulative IPC: 0.15768 (Simulation time: 0 hr 10 min 21 sec) 
Heartbeat CPU  1 instructions:   77000003 cycles:  204805823 heartbeat IPC: 0.12019 cumulative IPC: 0.12886 (Simulation time: 0 hr 10 min 26 sec) 
Heartbeat CPU  2 instructions:   85000003 cycles:  205277641 heartbeat IPC: 0.15420 cumulative IPC: 0.15438 (Simulation time: 0 hr 10 min 27 sec) 
Heartbeat CPU  3 instructions:   88000000 cycles:  207776744 heartbeat IPC: 0.15638 cumulative IPC: 0.15763 (Simulation time: 0 hr 10 min 30 sec) 
Heartbeat CPU  0 instructions:   73000003 cycles:  209643917 heartbeat IPC: 0.11792 cumulative IPC: 0.12310 (Simulation time: 0 hr 10 min 33 sec) 
Heartbeat CPU  2 instructions:   86000000 cycles:  211754672 heartbeat IPC: 0.15439 cumulative IPC: 0.15438 (Simulation time: 0 hr 10 min 36 sec) 
Heartbeat CPU  1 instructions:   78000001 cycles:  213157853 heartbeat IPC: 0.11973 cumulative IPC: 0.12846 (Simulation time: 0 hr 10 min 38 sec) 
Heartbeat CPU  3 instructions:   89000000 cycles:  214198483 heartbeat IPC: 0.15572 cumulative IPC: 0.15757 (Simulation time: 0 hr 10 min 39 sec) 
Heartbeat CPU  0 instructions:   74000002 cycles:  218159745 heartbeat IPC: 0.11743 cumulative IPC: 0.12285 (Simulation time: 0 hr 10 min 45 sec) 
Heartbeat CPU  2 instructions:   87000001 cycles:  218202039 heartbeat IPC: 0.15510 cumulative IPC: 0.15441 (Simulation time: 0 hr 10 min 45 sec) 
Heartbeat CPU  3 instructions:   90000000 cycles:  220622429 heartbeat IPC: 0.15567 cumulative IPC: 0.15751 (Simulation time: 0 hr 10 min 49 sec) 
Heartbeat CPU  1 instructions:   79000000 cycles:  221519410 heartbeat IPC: 0.11959 cumulative IPC: 0.12809 (Simulation time: 0 hr 10 min 50 sec) 
Heartbeat CPU  0 instructions:   75000001 cycles:  224617856 heartbeat IPC: 0.15484 cumulative IPC: 0.12388 (Simulation time: 0 hr 10 min 55 sec) 
Heartbeat CPU  2 instructions:   88000000 cycles:  224675250 heartbeat IPC: 0.15448 cumulative IPC: 0.15441 (Simulation time: 0 hr 10 min 55 sec) 
Heartbeat CPU  3 instructions:   91000002 cycles:  227036340 heartbeat IPC: 0.15591 cumulative IPC: 0.15746 (Simulation time: 0 hr 10 min 59 sec) 
Heartbeat CPU  0 instructions:   76000000 cycles:  229229577 heartbeat IPC: 0.21684 cumulative IPC: 0.12595 (Simulation time: 0 hr 11 min 3 sec) 
Heartbeat CPU  1 instructions:   80000000 cycles:  230072440 heartbeat IPC: 0.11692 cumulative IPC: 0.12763 (Simulation time: 0 hr 11 min 4 sec) 
Heartbeat CPU  2 instructions:   89000000 cycles:  231123628 heartbeat IPC: 0.15508 cumulative IPC: 0.15443 (Simulation time: 0 hr 11 min 5 sec) 
Heartbeat CPU  3 instructions:   92000000 cycles:  233431891 heartbeat IPC: 0.15636 cumulative IPC: 0.15742 (Simulation time: 0 hr 11 min 9 sec) 
Heartbeat CPU  0 instructions:   77000000 cycles:  236091164 heartbeat IPC: 0.14574 cumulative IPC: 0.12659 (Simulation time: 0 hr 11 min 13 sec) 
Heartbeat CPU  2 instructions:   90000003 cycles:  237568559 heartbeat IPC: 0.15516 cumulative IPC: 0.15445 (Simulation time: 0 hr 11 min 15 sec) 
Heartbeat CPU  1 instructions:   81000001 cycles:  238445267 heartbeat IPC: 0.11943 cumulative IPC: 0.12731 (Simulation time: 0 hr 11 min 16 sec) 
Heartbeat CPU  3 instructions:   93000002 cycles:  239791782 heartbeat IPC: 0.15724 cumulative IPC: 0.15742 (Simulation time: 0 hr 11 min 18 sec) 
Heartbeat CPU  2 instructions:   91000000 cycles:  244061992 heartbeat IPC: 0.15400 cumulative IPC: 0.15444 (Simulation time: 0 hr 11 min 24 sec) 
Heartbeat CPU  0 instructions:   78000002 cycles:  244378072 heartbeat IPC: 0.12067 cumulative IPC: 0.12637 (Simulation time: 0 hr 11 min 24 sec) 
Heartbeat CPU  3 instructions:   94000002 cycles:  246146083 heartbeat IPC: 0.15737 cumulative IPC: 0.15742 (Simulation time: 0 hr 11 min 27 sec) 
Heartbeat CPU  1 instructions:   82000002 cycles:  246883470 heartbeat IPC: 0.11851 cumulative IPC: 0.12698 (Simulation time: 0 hr 11 min 28 sec) 
Heartbeat CPU  2 instructions:   92000000 cycles:  250517100 heartbeat IPC: 0.15492 cumulative IPC: 0.15445 (Simulation time: 0 hr 11 min 33 sec) 
Heartbeat CPU  3 instructions:   95000000 cycles:  252487304 heartbeat IPC: 0.15770 cumulative IPC: 0.15743 (Simulation time: 0 hr 11 min 36 sec) 
Heartbeat CPU  0 instructions:   79000003 cycles:  252702036 heartbeat IPC: 0.12014 cumulative IPC: 0.12614 (Simulation time: 0 hr 11 min 36 sec) 
Heartbeat CPU  1 instructions:   83000003 cycles:  255197038 heartbeat IPC: 0.12029 cumulative IPC: 0.12674 (Simulation time: 0 hr 11 min 40 sec) 
Heartbeat CPU  2 instructions:   93000000 cycles:  256984182 heartbeat IPC: 0.15463 cumulative IPC: 0.15446 (Simulation time: 0 hr 11 min 43 sec) 
Heartbeat CPU  3 instructions:   96000000 cycles:  258824872 heartbeat IPC: 0.15779 cumulative IPC: 0.15744 (Simulation time: 0 hr 11 min 46 sec) 
Heartbeat CPU  1 instructions:   84000000 cycles:  259948784 heartbeat IPC: 0.21045 cumulative IPC: 0.12842 (Simulation time: 0 hr 11 min 48 sec) 
Heartbeat CPU  0 instructions:   80000000 cycles:  261107292 heartbeat IPC: 0.11897 cumulative IPC: 0.12589 (Simulation time: 0 hr 11 min 50 sec) 
Heartbeat CPU  2 instructions:   94000001 cycles:  263427911 heartbeat IPC: 0.15519 cumulative IPC: 0.15448 (Simulation time: 0 hr 11 min 53 sec) 
Heartbeat CPU  3 instructions:   97000001 cycles:  265188930 heartbeat IPC: 0.15713 cumulative IPC: 0.15743 (Simulation time: 0 hr 11 min 56 sec) 
Heartbeat CPU  1 instructions:   85000001 cycles:  265284984 heartbeat IPC: 0.18740 cumulative IPC: 0.12972 (Simulation time: 0 hr 11 min 56 sec) 
Heartbeat CPU  0 instructions:   81000002 cycles:  269483812 heartbeat IPC: 0.11938 cumulative IPC: 0.12567 (Simulation time: 0 hr 12 min 2 sec) 
Heartbeat CPU  2 instructions:   95000000 cycles:  269967810 heartbeat IPC: 0.15291 cumulative IPC: 0.15444 (Simulation time: 0 hr 12 min 3 sec) 
Heartbeat CPU  3 instructions:   98000003 cycles:  271556030 heartbeat IPC: 0.15706 cumulative IPC: 0.15742 (Simulation time: 0 hr 12 min 5 sec) 
Heartbeat CPU  1 instructions:   86000000 cycles:  273484742 heartbeat IPC: 0.12195 cumulative IPC: 0.12946 (Simulation time: 0 hr 12 min 8 sec) 
Heartbeat CPU  2 instructions:   96000000 cycles:  276521826 heartbeat IPC: 0.15258 cumulative IPC: 0.15439 (Simulation time: 0 hr 12 min 12 sec) 
Heartbeat CPU  0 instructions:   82000002 cycles:  277802337 heartbeat IPC: 0.12021 cumulative IPC: 0.12549 (Simulation time: 0 hr 12 min 14 sec) 
Heartbeat CPU  3 instructions:   99000000 cycles:  277930720 heartbeat IPC: 0.15687 cumulative IPC: 0.15740 (Simulation time: 0 hr 12 min 14 sec) 
Heartbeat CPU  1 instructions:   87000001 cycles:  281709256 heartbeat IPC: 0.12159 cumulative IPC: 0.12921 (Simulation time: 0 hr 12 min 19 sec) 
Heartbeat CPU  2 instructions:   97000000 cycles:  283079958 heartbeat IPC: 0.15248 cumulative IPC: 0.15434 (Simulation time: 0 hr 12 min 21 sec) 
*** Reached end of trace for Core: 3 Repeating trace: /data3/CLOUD9/traces/cloud9_phase0_core3.trace.xz
Heartbeat CPU  3 instructions:  100000000 cycles:  284295124 heartbeat IPC: 0.15712 cumulative IPC: 0.15740 (Simulation time: 0 hr 12 min 23 sec) 
Heartbeat CPU  0 instructions:   83000003 cycles:  286202220 heartbeat IPC: 0.11905 cumulative IPC: 0.12529 (Simulation time: 0 hr 12 min 26 sec) 
Heartbeat CPU  2 instructions:   98000003 cycles:  289623115 heartbeat IPC: 0.15283 cumulative IPC: 0.15430 (Simulation time: 0 hr 12 min 30 sec) 
Heartbeat CPU  1 instructions:   88000000 cycles:  289985141 heartbeat IPC: 0.12083 cumulative IPC: 0.12895 (Simulation time: 0 hr 12 min 31 sec) 
Heartbeat CPU  3 instructions:  101000003 cycles:  290695230 heartbeat IPC: 0.15625 cumulative IPC: 0.15737 (Simulation time: 0 hr 12 min 32 sec) 
Heartbeat CPU  0 instructions:   84000000 cycles:  294638471 heartbeat IPC: 0.11854 cumulative IPC: 0.12508 (Simulation time: 0 hr 12 min 37 sec) 
Heartbeat CPU  2 instructions:   99000001 cycles:  296137694 heartbeat IPC: 0.15350 cumulative IPC: 0.15428 (Simulation time: 0 hr 12 min 39 sec) 
Heartbeat CPU  3 instructions:  102000001 cycles:  297088887 heartbeat IPC: 0.15640 cumulative IPC: 0.15735 (Simulation time: 0 hr 12 min 41 sec) 
Heartbeat CPU  1 instructions:   89000000 cycles:  298322503 heartbeat IPC: 0.11994 cumulative IPC: 0.12868 (Simulation time: 0 hr 12 min 43 sec) 
*** Reached end of trace for Core: 2 Repeating trace: /data3/CLOUD9/traces/cloud9_phase0_core2.trace.xz
Heartbeat CPU  2 instructions:  100000000 cycles:  302655418 heartbeat IPC: 0.15343 cumulative IPC: 0.15426 (Simulation time: 0 hr 12 min 49 sec) 
Heartbeat CPU  0 instructions:   85000002 cycles:  303067904 heartbeat IPC: 0.11863 cumulative IPC: 0.12488 (Simulation time: 0 hr 12 min 49 sec) 
Heartbeat CPU  3 instructions:  103000000 cycles:  303527357 heartbeat IPC: 0.15532 cumulative IPC: 0.15730 (Simulation time: 0 hr 12 min 50 sec) 
Heartbeat CPU  1 instructions:   90000001 cycles:  306694608 heartbeat IPC: 0.11944 cumulative IPC: 0.12841 (Simulation time: 0 hr 12 min 54 sec) 
Heartbeat CPU  2 instructions:  101000001 cycles:  309567158 heartbeat IPC: 0.14468 cumulative IPC: 0.15403 (Simulation time: 0 hr 12 min 58 sec) 
Heartbeat CPU  3 instructions:  104000000 cycles:  310046275 heartbeat IPC: 0.15340 cumulative IPC: 0.15721 (Simulation time: 0 hr 12 min 59 sec) 
Heartbeat CPU  0 instructions:   86000001 cycles:  311360847 heartbeat IPC: 0.12058 cumulative IPC: 0.12476 (Simulation time: 0 hr 13 min 1 sec) 
Heartbeat CPU  1 instructions:   91000002 cycles:  315032332 heartbeat IPC: 0.11994 cumulative IPC: 0.12816 (Simulation time: 0 hr 13 min 6 sec) 
Heartbeat CPU  2 instructions:  102000002 cycles:  316433119 heartbeat IPC: 0.14565 cumulative IPC: 0.15384 (Simulation time: 0 hr 13 min 8 sec) 
Heartbeat CPU  3 instructions:  105000000 cycles:  316603587 heartbeat IPC: 0.15250 cumulative IPC: 0.15711 (Simulation time: 0 hr 13 min 8 sec) 
Heartbeat CPU  0 instructions:   87000000 cycles:  320190686 heartbeat IPC: 0.11325 cumulative IPC: 0.12442 (Simulation time: 0 hr 13 min 13 sec) 
Heartbeat CPU  2 instructions:  103000003 cycles:  323057296 heartbeat IPC: 0.15096 cumulative IPC: 0.15377 (Simulation time: 0 hr 13 min 17 sec) 
Heartbeat CPU  3 instructions:  106000002 cycles:  323105223 heartbeat IPC: 0.15381 cumulative IPC: 0.15704 (Simulation time: 0 hr 13 min 17 sec) 
Heartbeat CPU  1 instructions:   92000000 cycles:  323355275 heartbeat IPC: 0.12015 cumulative IPC: 0.12794 (Simulation time: 0 hr 13 min 17 sec) 
Heartbeat CPU  0 instructions:   88000000 cycles:  328689163 heartbeat IPC: 0.11767 cumulative IPC: 0.12423 (Simulation time: 0 hr 13 min 25 sec) 
Heartbeat CPU  3 instructions:  107000000 cycles:  329608529 heartbeat IPC: 0.15377 cumulative IPC: 0.15697 (Simulation time: 0 hr 13 min 26 sec) 
Heartbeat CPU  2 instructions:  104000000 cycles:  329696041 heartbeat IPC: 0.15063 cumulative IPC: 0.15370 (Simulation time: 0 hr 13 min 26 sec) 
Heartbeat CPU  1 instructions:   93000001 cycles:  331731948 heartbeat IPC: 0.11938 cumulative IPC: 0.12771 (Simulation time: 0 hr 13 min 29 sec) 
Heartbeat CPU  3 instructions:  108000000 cycles:  336146976 heartbeat IPC: 0.15294 cumulative IPC: 0.15688 (Simulation time: 0 hr 13 min 35 sec) 
Heartbeat CPU  2 instructions:  105000000 cycles:  336331373 heartbeat IPC: 0.15071 cumulative IPC: 0.15364 (Simulation time: 0 hr 13 min 35 sec) 
Heartbeat CPU  0 instructions:   89000001 cycles:  337226200 heartbeat IPC: 0.11714 cumulative IPC: 0.12404 (Simulation time: 0 hr 13 min 36 sec) 
Heartbeat CPU  1 instructions:   94000000 cycles:  340097023 heartbeat IPC: 0.11954 cumulative IPC: 0.12750 (Simulation time: 0 hr 13 min 41 sec) 
Heartbeat CPU  0 instructions:   90000000 cycles:  342594411 heartbeat IPC: 0.18628 cumulative IPC: 0.12508 (Simulation time: 0 hr 13 min 45 sec) 
Heartbeat CPU  3 instructions:  109000000 cycles:  342670880 heartbeat IPC: 0.15328 cumulative IPC: 0.15681 (Simulation time: 0 hr 13 min 45 sec) 
Heartbeat CPU  2 instructions:  106000003 cycles:  342964373 heartbeat IPC: 0.15076 cumulative IPC: 0.15358 (Simulation time: 0 hr 13 min 45 sec) 
Heartbeat CPU  0 instructions:   91000003 cycles:  347532941 heartbeat IPC: 0.20249 cumulative IPC: 0.12626 (Simulation time: 0 hr 13 min 52 sec) 
Heartbeat CPU  1 instructions:   95000001 cycles:  348609474 heartbeat IPC: 0.11748 cumulative IPC: 0.12723 (Simulation time: 0 hr 13 min 54 sec) 
Heartbeat CPU  3 instructions:  110000001 cycles:  349200870 heartbeat IPC: 0.15314 cumulative IPC: 0.15674 (Simulation time: 0 hr 13 min 55 sec) 
Heartbeat CPU  2 instructions:  107000001 cycles:  349582593 heartbeat IPC: 0.15110 cumulative IPC: 0.15353 (Simulation time: 0 hr 13 min 55 sec) 
Heartbeat CPU  0 instructions:   92000000 cycles:  355174580 heartbeat IPC: 0.13086 cumulative IPC: 0.12637 (Simulation time: 0 hr 14 min 3 sec) 
Heartbeat CPU  3 instructions:  111000000 cycles:  355761094 heartbeat IPC: 0.15243 cumulative IPC: 0.15665 (Simulation time: 0 hr 14 min 4 sec) 
Heartbeat CPU  2 instructions:  108000000 cycles:  356193021 heartbeat IPC: 0.15128 cumulative IPC: 0.15349 (Simulation time: 0 hr 14 min 4 sec) 
Heartbeat CPU  1 instructions:   96000000 cycles:  356987353 heartbeat IPC: 0.11936 cumulative IPC: 0.12704 (Simulation time: 0 hr 14 min 6 sec) 
Heartbeat CPU  3 instructions:  112000000 cycles:  362338199 heartbeat IPC: 0.15204 cumulative IPC: 0.15656 (Simulation time: 0 hr 14 min 13 sec) 
Heartbeat CPU  2 instructions:  109000003 cycles:  362826533 heartbeat IPC: 0.15075 cumulative IPC: 0.15343 (Simulation time: 0 hr 14 min 14 sec) 
Heartbeat CPU  0 instructions:   93000000 cycles:  363501758 heartbeat IPC: 0.12009 cumulative IPC: 0.12621 (Simulation time: 0 hr 14 min 14 sec) 
Heartbeat CPU  1 instructions:   97000000 cycles:  365395795 heartbeat IPC: 0.11893 cumulative IPC: 0.12684 (Simulation time: 0 hr 14 min 17 sec) 
Heartbeat CPU  3 instructions:  113000000 cycles:  368916284 heartbeat IPC: 0.15202 cumulative IPC: 0.15648 (Simulation time: 0 hr 14 min 22 sec) 
Heartbeat CPU  2 instructions:  110000001 cycles:  369471618 heartbeat IPC: 0.15049 cumulative IPC: 0.15338 (Simulation time: 0 hr 14 min 23 sec) 
Heartbeat CPU  0 instructions:   94000003 cycles:  371851736 heartbeat IPC: 0.11976 cumulative IPC: 0.12606 (Simulation time: 0 hr 14 min 26 sec) 
Heartbeat CPU  1 instructions:   98000001 cycles:  372904611 heartbeat IPC: 0.13318 cumulative IPC: 0.12697 (Simulation time: 0 hr 14 min 28 sec) 
Heartbeat CPU  3 instructions:  114000003 cycles:  375499588 heartbeat IPC: 0.15190 cumulative IPC: 0.15639 (Simulation time: 0 hr 14 min 32 sec) 
Heartbeat CPU  2 instructions:  111000001 cycles:  376090613 heartbeat IPC: 0.15108 cumulative IPC: 0.15333 (Simulation time: 0 hr 14 min 33 sec) 
Heartbeat CPU  1 instructions:   99000001 cycles:  377562407 heartbeat IPC: 0.21469 cumulative IPC: 0.12813 (Simulation time: 0 hr 14 min 35 sec) 
Heartbeat CPU  0 instructions:   95000001 cycles:  380234395 heartbeat IPC: 0.11929 cumulative IPC: 0.12590 (Simulation time: 0 hr 14 min 39 sec) 
Heartbeat CPU  3 instructions:  115000001 cycles:  382085149 heartbeat IPC: 0.15185 cumulative IPC: 0.15631 (Simulation time: 0 hr 14 min 42 sec) 
Heartbeat CPU  2 instructions:  112000000 cycles:  382715797 heartbeat IPC: 0.15094 cumulative IPC: 0.15329 (Simulation time: 0 hr 14 min 43 sec) 
*** Reached end of trace for Core: 1 Repeating trace: /data3/CLOUD9/traces/cloud9_phase0_core1.trace.xz
Heartbeat CPU  1 instructions:  100000000 cycles:  384544524 heartbeat IPC: 0.14322 cumulative IPC: 0.12842 (Simulation time: 0 hr 14 min 45 sec) 
Heartbeat CPU  3 instructions:  116000000 cycles:  388420241 heartbeat IPC: 0.15785 cumulative IPC: 0.15633 (Simulation time: 0 hr 14 min 51 sec) 
Heartbeat CPU  0 instructions:   96000000 cycles:  388543173 heartbeat IPC: 0.12035 cumulative IPC: 0.12577 (Simulation time: 0 hr 14 min 51 sec) 
Heartbeat CPU  2 instructions:  113000000 cycles:  389332703 heartbeat IPC: 0.15113 cumulative IPC: 0.15325 (Simulation time: 0 hr 14 min 52 sec) 
Heartbeat CPU  1 instructions:  101000002 cycles:  392776219 heartbeat IPC: 0.12148 cumulative IPC: 0.12826 (Simulation time: 0 hr 14 min 57 sec) 
Heartbeat CPU  3 instructions:  117000003 cycles:  394665585 heartbeat IPC: 0.16012 cumulative IPC: 0.15640 (Simulation time: 0 hr 14 min 59 sec) 
Heartbeat CPU  2 instructions:  114000001 cycles:  395963984 heartbeat IPC: 0.15080 cumulative IPC: 0.15321 (Simulation time: 0 hr 15 min 1 sec) 
Heartbeat CPU  0 instructions:   97000001 cycles:  396957151 heartbeat IPC: 0.11885 cumulative IPC: 0.12562 (Simulation time: 0 hr 15 min 3 sec) 
Heartbeat CPU  3 instructions:  118000001 cycles:  400923741 heartbeat IPC: 0.15979 cumulative IPC: 0.15645 (Simulation time: 0 hr 15 min 8 sec) 
Heartbeat CPU  1 instructions:  102000001 cycles:  401203546 heartbeat IPC: 0.11866 cumulative IPC: 0.12805 (Simulation time: 0 hr 15 min 9 sec) 
Heartbeat CPU  2 instructions:  115000003 cycles:  402594739 heartbeat IPC: 0.15081 cumulative IPC: 0.15317 (Simulation time: 0 hr 15 min 10 sec) 
Heartbeat CPU  0 instructions:   98000003 cycles:  405354019 heartbeat IPC: 0.11909 cumulative IPC: 0.12547 (Simulation time: 0 hr 15 min 14 sec) 
Heartbeat CPU  3 instructions:  119000000 cycles:  407177040 heartbeat IPC: 0.15992 cumulative IPC: 0.15651 (Simulation time: 0 hr 15 min 17 sec) 
Heartbeat CPU  2 instructions:  116000000 cycles:  409216377 heartbeat IPC: 0.15102 cumulative IPC: 0.15313 (Simulation time: 0 hr 15 min 20 sec) 
Heartbeat CPU  1 instructions:  103000003 cycles:  409482972 heartbeat IPC: 0.12078 cumulative IPC: 0.12789 (Simulation time: 0 hr 15 min 20 sec) 
Heartbeat CPU  3 instructions:  120000000 cycles:  413437155 heartbeat IPC: 0.15974 cumulative IPC: 0.15656 (Simulation time: 0 hr 15 min 26 sec) 
Heartbeat CPU  0 instructions:   99000003 cycles:  413766217 heartbeat IPC: 0.11887 cumulative IPC: 0.12533 (Simulation time: 0 hr 15 min 26 sec) 
Heartbeat CPU  2 instructions:  117000000 cycles:  415818646 heartbeat IPC: 0.15146 cumulative IPC: 0.15310 (Simulation time: 0 hr 15 min 29 sec) 
Heartbeat CPU  1 instructions:  104000000 cycles:  417808519 heartbeat IPC: 0.12011 cumulative IPC: 0.12773 (Simulation time: 0 hr 15 min 32 sec) 
Heartbeat CPU  3 instructions:  121000000 cycles:  419666976 heartbeat IPC: 0.16052 cumulative IPC: 0.15662 (Simulation time: 0 hr 15 min 34 sec) 
*** Reached end of trace for Core: 0 Repeating trace: /data3/CLOUD9/traces/cloud9_phase0_core0.trace.xz
Heartbeat CPU  0 instructions:  100000000 cycles:  422206634 heartbeat IPC: 0.11848 cumulative IPC: 0.12519 (Simulation time: 0 hr 15 min 38 sec) 
Heartbeat CPU  2 instructions:  118000002 cycles:  422449022 heartbeat IPC: 0.15082 cumulative IPC: 0.15306 (Simulation time: 0 hr 15 min 38 sec) 
Heartbeat CPU  3 instructions:  122000003 cycles:  425926687 heartbeat IPC: 0.15975 cumulative IPC: 0.15667 (Simulation time: 0 hr 15 min 43 sec) 
Heartbeat CPU  1 instructions:  105000003 cycles:  426144993 heartbeat IPC: 0.11996 cumulative IPC: 0.12757 (Simulation time: 0 hr 15 min 43 sec) 
Heartbeat CPU  2 instructions:  119000001 cycles:  429049741 heartbeat IPC: 0.15150 cumulative IPC: 0.15304 (Simulation time: 0 hr 15 min 47 sec) 
Heartbeat CPU  0 instructions:  101000001 cycles:  430702803 heartbeat IPC: 0.11770 cumulative IPC: 0.12503 (Simulation time: 0 hr 15 min 50 sec) 
Heartbeat CPU  3 instructions:  123000001 cycles:  432177702 heartbeat IPC: 0.15997 cumulative IPC: 0.15672 (Simulation time: 0 hr 15 min 52 sec) 
Heartbeat CPU  1 instructions:  106000001 cycles:  434663166 heartbeat IPC: 0.11740 cumulative IPC: 0.12736 (Simulation time: 0 hr 15 min 56 sec) 
Heartbeat CPU  0 instructions:  102000000 cycles:  435613515 heartbeat IPC: 0.20364 cumulative IPC: 0.12597 (Simulation time: 0 hr 15 min 58 sec) 
Heartbeat CPU  2 instructions:  120000000 cycles:  435698118 heartbeat IPC: 0.15041 cumulative IPC: 0.15300 (Simulation time: 0 hr 15 min 58 sec) 
Heartbeat CPU  3 instructions:  124000000 cycles:  438430536 heartbeat IPC: 0.15993 cumulative IPC: 0.15677 (Simulation time: 0 hr 16 min 2 sec) 
Heartbeat CPU  0 instructions:  103000002 cycles:  440609879 heartbeat IPC: 0.20015 cumulative IPC: 0.12685 (Simulation time: 0 hr 16 min 6 sec) 
Heartbeat CPU  2 instructions:  121000001 cycles:  442310013 heartbeat IPC: 0.15124 cumulative IPC: 0.15297 (Simulation time: 0 hr 16 min 8 sec) 
Heartbeat CPU  1 instructions:  107000001 cycles:  443020643 heartbeat IPC: 0.11965 cumulative IPC: 0.12720 (Simulation time: 0 hr 16 min 9 sec) 
Heartbeat CPU  3 instructions:  125000001 cycles:  444706024 heartbeat IPC: 0.15935 cumulative IPC: 0.15681 (Simulation time: 0 hr 16 min 11 sec) 
Heartbeat CPU  0 instructions:  104000000 cycles:  448554071 heartbeat IPC: 0.12588 cumulative IPC: 0.12684 (Simulation time: 0 hr 16 min 17 sec) 
Heartbeat CPU  2 instructions:  122000002 cycles:  448937797 heartbeat IPC: 0.15088 cumulative IPC: 0.15294 (Simulation time: 0 hr 16 min 17 sec) 
Heartbeat CPU  3 instructions:  126000003 cycles:  450967163 heartbeat IPC: 0.15972 cumulative IPC: 0.15685 (Simulation time: 0 hr 16 min 20 sec) 
Heartbeat CPU  1 instructions:  108000000 cycles:  451414671 heartbeat IPC: 0.11913 cumulative IPC: 0.12705 (Simulation time: 0 hr 16 min 21 sec) 
Heartbeat CPU  2 instructions:  123000000 cycles:  455539524 heartbeat IPC: 0.15148 cumulative IPC: 0.15291 (Simulation time: 0 hr 16 min 26 sec) 
Heartbeat CPU  0 instructions:  105000000 cycles:  456882817 heartbeat IPC: 0.12007 cumulative IPC: 0.12671 (Simulation time: 0 hr 16 min 28 sec) 
Heartbeat CPU  3 instructions:  127000000 cycles:  457207535 heartbeat IPC: 0.16025 cumulative IPC: 0.15690 (Simulation time: 0 hr 16 min 29 sec) 
Heartbeat CPU  1 instructions:  109000002 cycles:  459750713 heartbeat IPC: 0.11996 cumulative IPC: 0.12691 (Simulation time: 0 hr 16 min 32 sec) 
Heartbeat CPU  2 instructions:  124000000 cycles:  462169043 heartbeat IPC: 0.15084 cumulative IPC: 0.15288 (Simulation time: 0 hr 16 min 36 sec) 
Heartbeat CPU  3 instructions:  128000000 cycles:  463457273 heartbeat IPC: 0.16001 cumulative IPC: 0.15694 (Simulation time: 0 hr 16 min 38 sec) 
Heartbeat CPU  1 instructions:  110000002 cycles:  464383999 heartbeat IPC: 0.21583 cumulative IPC: 0.12784 (Simulation time: 0 hr 16 min 40 sec) 
Heartbeat CPU  0 instructions:  106000001 cycles:  465195628 heartbeat IPC: 0.12030 cumulative IPC: 0.12659 (Simulation time: 0 hr 16 min 41 sec) 
Heartbeat CPU  2 instructions:  125000001 cycles:  468830184 heartbeat IPC: 0.15012 cumulative IPC: 0.15284 (Simulation time: 0 hr 16 min 47 sec) 
Heartbeat CPU  3 instructions:  129000001 cycles:  469702952 heartbeat IPC: 0.16011 cumulative IPC: 0.15699 (Simulation time: 0 hr 16 min 48 sec) 
Heartbeat CPU  1 instructions:  111000001 cycles:  469746182 heartbeat IPC: 0.18649 cumulative IPC: 0.12855 (Simulation time: 0 hr 16 min 48 sec) 
Heartbeat CPU  0 instructions:  107000002 cycles:  473608825 heartbeat IPC: 0.11886 cumulative IPC: 0.12644 (Simulation time: 0 hr 16 min 54 sec) 
Heartbeat CPU  2 instructions:  126000001 cycles:  475483333 heartbeat IPC: 0.15030 cumulative IPC: 0.15280 (Simulation time: 0 hr 16 min 56 sec) 
Heartbeat CPU  3 instructions:  130000001 cycles:  475953112 heartbeat IPC: 0.16000 cumulative IPC: 0.15703 (Simulation time: 0 hr 16 min 57 sec) 
Heartbeat CPU  1 instructions:  112000000 cycles:  477922348 heartbeat IPC: 0.12231 cumulative IPC: 0.12844 (Simulation time: 0 hr 17 min 0 sec) 
Heartbeat CPU  0 instructions:  108000000 cycles:  481968880 heartbeat IPC: 0.11962 cumulative IPC: 0.12632 (Simulation time: 0 hr 17 min 5 sec) 
Heartbeat CPU  2 instructions:  127000001 cycles:  482158646 heartbeat IPC: 0.14981 cumulative IPC: 0.15276 (Simulation time: 0 hr 17 min 6 sec) 
Heartbeat CPU  3 instructions:  131000002 cycles:  482248846 heartbeat IPC: 0.15884 cumulative IPC: 0.15705 (Simulation time: 0 hr 17 min 6 sec) 
Heartbeat CPU  1 instructions:  113000000 cycles:  486129589 heartbeat IPC: 0.12184 cumulative IPC: 0.12832 (Simulation time: 0 hr 17 min 11 sec) 
Heartbeat CPU  3 instructions:  132000000 cycles:  488507386 heartbeat IPC: 0.15978 cumulative IPC: 0.15709 (Simulation time: 0 hr 17 min 14 sec) 
Heartbeat CPU  2 instructions:  128000000 cycles:  488826959 heartbeat IPC: 0.14996 cumulative IPC: 0.15272 (Simulation time: 0 hr 17 min 15 sec) 
Heartbeat CPU  0 instructions:  109000003 cycles:  490340920 heartbeat IPC: 0.11945 cumulative IPC: 0.12619 (Simulation time: 0 hr 17 min 17 sec) 
Heartbeat CPU  1 instructions:  114000000 cycles:  494336489 heartbeat IPC: 0.12185 cumulative IPC: 0.12821 (Simulation time: 0 hr 17 min 23 sec) 
Heartbeat CPU  3 instructions:  133000000 cycles:  494773425 heartbeat IPC: 0.15959 cumulative IPC: 0.15712 (Simulation time: 0 hr 17 min 23 sec) 
Heartbeat CPU  2 instructions:  129000001 cycles:  495575091 heartbeat IPC: 0.14819 cumulative IPC: 0.15265 (Simulation time: 0 hr 17 min 24 sec) 
Heartbeat CPU  0 instructions:  110000002 cycles:  498769687 heartbeat IPC: 0.11864 cumulative IPC: 0.12606 (Simulation time: 0 hr 17 min 29 sec) 
Heartbeat CPU  3 instructions:  134000003 cycles:  501032647 heartbeat IPC: 0.15976 cumulative IPC: 0.15716 (Simulation time: 0 hr 17 min 32 sec) 
Heartbeat CPU  2 instructions:  130000002 cycles:  502338173 heartbeat IPC: 0.14786 cumulative IPC: 0.15259 (Simulation time: 0 hr 17 min 34 sec) 
Heartbeat CPU  1 instructions:  115000001 cycles:  502578398 heartbeat IPC: 0.12133 cumulative IPC: 0.12809 (Simulation time: 0 hr 17 min 34 sec) 
Heartbeat CPU  0 instructions:  111000001 cycles:  507240121 heartbeat IPC: 0.11806 cumulative IPC: 0.12592 (Simulation time: 0 hr 17 min 41 sec) 
Heartbeat CPU  3 instructions:  135000003 cycles:  507292346 heartbeat IPC: 0.15975 cumulative IPC: 0.15719 (Simulation time: 0 hr 17 min 41 sec) 
Heartbeat CPU  2 instructions:  131000002 cycles:  509087636 heartbeat IPC: 0.14816 cumulative IPC: 0.15253 (Simulation time: 0 hr 17 min 43 sec) 
Heartbeat CPU  1 instructions:  116000000 cycles:  510871233 heartbeat IPC: 0.12059 cumulative IPC: 0.12796 (Simulation time: 0 hr 17 min 46 sec) 
Heartbeat CPU  3 instructions:  136000000 cycles:  513560712 heartbeat IPC: 0.15953 cumulative IPC: 0.15722 (Simulation time: 0 hr 17 min 50 sec) 
Heartbeat CPU  0 instructions:  112000000 cycles:  515669078 heartbeat IPC: 0.11864 cumulative IPC: 0.12580 (Simulation time: 0 hr 17 min 52 sec) 
Heartbeat CPU  2 instructions:  132000000 cycles:  515850586 heartbeat IPC: 0.14786 cumulative IPC: 0.15246 (Simulation time: 0 hr 17 min 53 sec) 
Heartbeat CPU  1 instructions:  117000002 cycles:  519190228 heartbeat IPC: 0.12021 cumulative IPC: 0.12783 (Simulation time: 0 hr 17 min 57 sec) 
Heartbeat CPU  3 instructions:  137000001 cycles:  519861762 heartbeat IPC: 0.15870 cumulative IPC: 0.15724 (Simulation time: 0 hr 17 min 58 sec) 
Heartbeat CPU  2 instructions:  133000000 cycles:  522584137 heartbeat IPC: 0.14851 cumulative IPC: 0.15241 (Simulation time: 0 hr 18 min 2 sec) 
Heartbeat CPU  0 instructions:  113000001 cycles:  524328492 heartbeat IPC: 0.11548 cumulative IPC: 0.12562 (Simulation time: 0 hr 18 min 5 sec) 
Heartbeat CPU  3 instructions:  138000002 cycles:  526157854 heartbeat IPC: 0.15883 cumulative IPC: 0.15726 (Simulation time: 0 hr 18 min 7 sec) 
Heartbeat CPU  1 instructions:  118000003 cycles:  527474948 heartbeat IPC: 0.12070 cumulative IPC: 0.12771 (Simulation time: 0 hr 18 min 9 sec) 
Heartbeat CPU  2 instructions:  134000003 cycles:  529351117 heartbeat IPC: 0.14778 cumulative IPC: 0.15235 (Simulation time: 0 hr 18 min 12 sec) 
Heartbeat CPU  3 instructions:  139000001 cycles:  532449051 heartbeat IPC: 0.15895 cumulative IPC: 0.15728 (Simulation time: 0 hr 18 min 16 sec) 
Heartbeat CPU  0 instructions:  114000000 cycles:  532794373 heartbeat IPC: 0.11812 cumulative IPC: 0.12549 (Simulation time: 0 hr 18 min 17 sec) 
Heartbeat CPU  1 instructions:  119000002 cycles:  535806446 heartbeat IPC: 0.12003 cumulative IPC: 0.12759 (Simulation time: 0 hr 18 min 21 sec) 
Heartbeat CPU  2 instructions:  135000000 cycles:  536131168 heartbeat IPC: 0.14749 cumulative IPC: 0.15228 (Simulation time: 0 hr 18 min 21 sec) 
Heartbeat CPU  3 instructions:  140000000 cycles:  538763467 heartbeat IPC: 0.15837 cumulative IPC: 0.15730 (Simulation time: 0 hr 18 min 25 sec) 
Heartbeat CPU  0 instructions:  115000002 cycles:  541330199 heartbeat IPC: 0.11715 cumulative IPC: 0.12536 (Simulation time: 0 hr 18 min 29 sec) 
Heartbeat CPU  2 instructions:  136000000 cycles:  542873763 heartbeat IPC: 0.14831 cumulative IPC: 0.15223 (Simulation time: 0 hr 18 min 31 sec) 
Heartbeat CPU  1 instructions:  120000000 cycles:  544174801 heartbeat IPC: 0.11950 cumulative IPC: 0.12746 (Simulation time: 0 hr 18 min 33 sec) 
Heartbeat CPU  3 instructions:  141000000 cycles:  545067407 heartbeat IPC: 0.15863 cumulative IPC: 0.15731 (Simulation time: 0 hr 18 min 34 sec) 
Heartbeat CPU  0 instructions:  116000000 cycles:  549010965 heartbeat IPC: 0.13020 cumulative IPC: 0.12543 (Simulation time: 0 hr 18 min 40 sec) 
Heartbeat CPU  2 instructions:  137000002 cycles:  549646722 heartbeat IPC: 0.14765 cumulative IPC: 0.15217 (Simulation time: 0 hr 18 min 41 sec) 
Heartbeat CPU  3 instructions:  142000001 cycles:  551321393 heartbeat IPC: 0.15990 cumulative IPC: 0.15734 (Simulation time: 0 hr 18 min 44 sec) 
Heartbeat CPU  1 instructions:  121000000 cycles:  552696582 heartbeat IPC: 0.11735 cumulative IPC: 0.12730 (Simulation time: 0 hr 18 min 46 sec) 
Heartbeat CPU  0 instructions:  117000003 cycles:  553656631 heartbeat IPC: 0.21526 cumulative IPC: 0.12621 (Simulation time: 0 hr 18 min 47 sec) 
Heartbeat CPU  2 instructions:  138000000 cycles:  556367969 heartbeat IPC: 0.14878 cumulative IPC: 0.15213 (Simulation time: 0 hr 18 min 52 sec) 
Heartbeat CPU  3 instructions:  143000000 cycles:  557574341 heartbeat IPC: 0.15992 cumulative IPC: 0.15737 (Simulation time: 0 hr 18 min 53 sec) 
Heartbeat CPU  0 instructions:  118000000 cycles:  559620191 heartbeat IPC: 0.16768 cumulative IPC: 0.12667 (Simulation time: 0 hr 18 min 56 sec) 
Heartbeat CPU  1 instructions:  122000000 cycles:  561053211 heartbeat IPC: 0.11967 cumulative IPC: 0.12718 (Simulation time: 0 hr 18 min 58 sec) 
[...]

Core_1_L1D_wq_access 11357106
Core_1_L1D_wq_forward 23
Core_1_L1D_wq_merged 852469
Core_1_L1D_wq_to_cache 10504637
Core_1_L1D_wq_full 8102

Core_1_L1D_pq_access 0
Core_1_L1D_pq_forward 0
Core_1_L1D_pq_merged 0
Core_1_L1D_pq_to_cache 0
Core_1_L1D_pq_full 0

Core_1_L1D_acc_epochs 162508
Core_1_L1D_acc_level_0 162508
Core_1_L1D_acc_level_1 0
Core_1_L1D_acc_level_2 0
Core_1_L1D_acc_level_3 0
Core_1_L1D_acc_level_4 0
Core_1_L1D_acc_level_5 0
Core_1_L1D_acc_level_6 0
Core_1_L1D_acc_level_7 0
Core_1_L1D_acc_level_8 0
Core_1_L1D_acc_level_9 0

Core_1_L1I_total_access 40207457
Core_1_L1I_total_hit 40194690
Core_1_L1I_total_miss 12767
Core_1_L1I_loads 40207457
Core_1_L1I_load_hit 40194690
Core_1_L1I_load_miss 12767
Core_1_L1I_RFOs 0
Core_1_L1I_RFO_hit 0
Core_1_L1I_RFO_miss 0
Core_1_L1I_prefetches 0
Core_1_L1I_prefetch_hit 0
Core_1_L1I_prefetch_miss 0
Core_1_L1I_writebacks 0
Core_1_L1I_writeback_hit 0
Core_1_L1I_writeback_miss 0
Core_1_L1I_prefetch_requested 0
Core_1_L1I_prefetch_dropped 0
Core_1_L1I_prefetch_issued 0
Core_1_L1I_prefetch_filled 0
Core_1_L1I_prefetch_useful 0
Core_1_L1I_prefetch_useless 0
Core_1_L1I_prefetch_late 0
Core_1_L1I_average_miss_latency 160.20365

Core_1_L1I_rq_access 151658543
Core_1_L1I_rq_forward 0
Core_1_L1I_rq_merged 110985094
Core_1_L1I_rq_to_cache 40673449
Core_1_L1I_rq_full 0

Core_1_L1I_wq_access 0
Core_1_L1I_wq_forward 0
Core_1_L1I_wq_merged 0
Core_1_L1I_wq_to_cache 0
Core_1_L1I_wq_full 0

Core_1_L1I_pq_access 0
Core_1_L1I_pq_forward 0
Core_1_L1I_pq_merged 0
Core_1_L1I_pq_to_cache 0
Core_1_L1I_pq_full 0

Core_1_L1I_acc_epochs 162508
Core_1_L1I_acc_level_0 162508
Core_1_L1I_acc_level_1 0
Core_1_L1I_acc_level_2 0
Core_1_L1I_acc_level_3 0
Core_1_L1I_acc_level_4 0
Core_1_L1I_acc_level_5 0
Core_1_L1I_acc_level_6 0
Core_1_L1I_acc_level_7 0
Core_1_L1I_acc_level_8 0
Core_1_L1I_acc_level_9 0

Core_1_L2C_total_access 5961959
Core_1_L2C_total_hit 3517139
Core_1_L2C_total_miss 2444820
Core_1_L2C_loads 1190216
Core_1_L2C_load_hit 847244
Core_1_L2C_load_miss 342972
Core_1_L2C_RFOs 59132
Core_1_L2C_RFO_hit 19541
Core_1_L2C_RFO_miss 39591
Core_1_L2C_prefetches 3967701
Core_1_L2C_prefetch_hit 1937428
Core_1_L2C_prefetch_miss 2030273
Core_1_L2C_writebacks 744910
Core_1_L2C_writeback_hit 712926
Core_1_L2C_writeback_miss 31984
Core_1_L2C_prefetch_requested 5349150
Core_1_L2C_prefetch_dropped 43
Core_1_L2C_prefetch_issued 5349107
Core_1_L2C_prefetch_filled 2746846
Core_1_L2C_prefetch_useful 884445
Core_1_L2C_prefetch_useless 1860283
Core_1_L2C_prefetch_late 791
Core_1_L2C_average_miss_latency 126.33910

Core_1_L2C_rq_access 1259830
Core_1_L2C_rq_forward 0
Core_1_L2C_rq_merged 0
Core_1_L2C_rq_to_cache 1259826
Core_1_L2C_rq_full 0

Core_1_L2C_wq_access 749162
Core_1_L2C_wq_forward 8
Core_1_L2C_wq_merged 0
Core_1_L2C_wq_to_cache 749162
Core_1_L2C_wq_full 0

Core_1_L2C_pq_access 5349107
Core_1_L2C_pq_forward 0
Core_1_L2C_pq_merged 0
Core_1_L2C_pq_to_cache 5349103
Core_1_L2C_pq_full 0

Core_1_L2C_acc_epochs 162508
Core_1_L2C_acc_level_0 14055
Core_1_L2C_acc_level_1 33232
Core_1_L2C_acc_level_2 26456
Core_1_L2C_acc_level_3 17379
Core_1_L2C_acc_level_4 12777
Core_1_L2C_acc_level_5 9636
Core_1_L2C_acc_level_6 7575
Core_1_L2C_acc_level_7 6201
Core_1_L2C_acc_level_8 5037
Core_1_L2C_acc_level_9 30160

Core_1_LLC_total_access 3032882
Core_1_LLC_total_hit 2522590
Core_1_LLC_total_miss 510292
Core_1_LLC_loads 342224
Core_1_LLC_load_hit 287849
Core_1_LLC_load_miss 54375
Core_1_LLC_RFOs 39579
Core_1_LLC_RFO_hit 23465
Core_1_LLC_RFO_miss 16114
Core_1_LLC_prefetches 2031016
Core_1_LLC_prefetch_hit 1595465
Core_1_LLC_prefetch_miss 435551
Core_1_LLC_writebacks 620063
Core_1_LLC_writeback_hit 615811
Core_1_LLC_writeback_miss 4252
Core_1_LLC_prefetch_requested 0
Core_1_LLC_prefetch_dropped 0
Core_1_LLC_prefetch_issued 0
Core_1_LLC_prefetch_filled 2332052
Core_1_LLC_prefetch_useful 162037
Core_1_LLC_prefetch_useless 2094901
Core_1_LLC_prefetch_late 0
Core_1_LLC_average_miss_latency 690.78019

Core_1_LLC_rq_access 1107416
Core_1_LLC_rq_forward 0
Core_1_LLC_rq_merged 0
Core_1_LLC_rq_to_cache 1107404
Core_1_LLC_rq_full 0

Core_1_LLC_wq_access 1547130
Core_1_LLC_wq_forward 40
Core_1_LLC_wq_merged 0
Core_1_LLC_wq_to_cache 1547130
Core_1_LLC_wq_full 0

Core_1_LLC_pq_access 7910207
Core_1_LLC_pq_forward 0
Core_1_LLC_pq_merged 0
Core_1_LLC_pq_to_cache 7910173
Core_1_LLC_pq_full 0

Core_1_LLC_acc_epochs 1186103
Core_1_LLC_acc_level_0 1102898
Core_1_LLC_acc_level_1 38986
Core_1_LLC_acc_level_2 21078
Core_1_LLC_acc_level_3 4769
Core_1_LLC_acc_level_4 1248
Core_1_LLC_acc_level_5 12542
Core_1_LLC_acc_level_6 1311
Core_1_LLC_acc_level_7 907
Core_1_LLC_acc_level_8 291
Core_1_LLC_acc_level_9 2073

Core_1_major_page_fault 0
Core_1_minor_page_fault 1756

Core_2_instructions 150000000
Core_2_cycles 985737567
Core_2_IPC 0.15217

Core_2_branch_prediction_accuracy 99.65405
Core_2_branch_MPKI 0.72384
Core_2_average_ROB_occupancy_at_mispredict 229.99171

Core_2_L1D_total_access 23262107
Core_2_L1D_total_hit 22928053
Core_2_L1D_total_miss 334054
Core_2_L1D_loads 14091400
Core_2_L1D_load_hit 13758205
Core_2_L1D_load_miss 333195
Core_2_L1D_RFOs 9170707
Core_2_L1D_RFO_hit 9169848
Core_2_L1D_RFO_miss 859
Core_2_L1D_prefetches 0
Core_2_L1D_prefetch_hit 0
Core_2_L1D_prefetch_miss 0
Core_2_L1D_writebacks 0
Core_2_L1D_writeback_hit 0
Core_2_L1D_writeback_miss 0
Core_2_L1D_prefetch_requested 0
Core_2_L1D_prefetch_dropped 0
Core_2_L1D_prefetch_issued 0
Core_2_L1D_prefetch_filled 0
Core_2_L1D_prefetch_useful 0
Core_2_L1D_prefetch_useless 0
Core_2_L1D_prefetch_late 0
Core_2_L1D_average_miss_latency 121.69637

Core_2_L1D_rq_access 24377484
Core_2_L1D_rq_forward 0
Core_2_L1D_rq_merged 7351508
Core_2_L1D_rq_to_cache 17025878
Core_2_L1D_rq_full 0

Core_2_L1D_wq_access 11245960
Core_2_L1D_wq_forward 98
Core_2_L1D_wq_merged 143177
Core_2_L1D_wq_to_cache 11102783
Core_2_L1D_wq_full 0

Core_2_L1D_pq_access 0
Core_2_L1D_pq_forward 0
Core_2_L1D_pq_merged 0
Core_2_L1D_pq_to_cache 0
Core_2_L1D_pq_full 0

Core_2_L1D_acc_epochs 179984
Core_2_L1D_acc_level_0 179984
Core_2_L1D_acc_level_1 0
Core_2_L1D_acc_level_2 0
Core_2_L1D_acc_level_3 0
Core_2_L1D_acc_level_4 0
Core_2_L1D_acc_level_5 0
Core_2_L1D_acc_level_6 0
Core_2_L1D_acc_level_7 0
Core_2_L1D_acc_level_8 0
Core_2_L1D_acc_level_9 0

Core_2_L1I_total_access 41804064
Core_2_L1I_total_hit 41803413
Core_2_L1I_total_miss 651
Core_2_L1I_loads 41804064
Core_2_L1I_load_hit 41803413
Core_2_L1I_load_miss 651
Core_2_L1I_RFOs 0
Core_2_L1I_RFO_hit 0
Core_2_L1I_RFO_miss 0
Core_2_L1I_prefetches 0
Core_2_L1I_prefetch_hit 0
Core_2_L1I_prefetch_miss 0
Core_2_L1I_writebacks 0
Core_2_L1I_writeback_hit 0
Core_2_L1I_writeback_miss 0
Core_2_L1I_prefetch_requested 0
Core_2_L1I_prefetch_dropped 0
Core_2_L1I_prefetch_issued 0
Core_2_L1I_prefetch_filled 0
Core_2_L1I_prefetch_useful 0
Core_2_L1I_prefetch_useless 0
Core_2_L1I_prefetch_late 0
Core_2_L1I_average_miss_latency 194.95238

Core_2_L1I_rq_access 180895258
Core_2_L1I_rq_forward 0
Core_2_L1I_rq_merged 130675695
Core_2_L1I_rq_to_cache 50219563
Core_2_L1I_rq_full 0

Core_2_L1I_wq_access 0
Core_2_L1I_wq_forward 0
Core_2_L1I_wq_merged 0
Core_2_L1I_wq_to_cache 0
Core_2_L1I_wq_full 0

Core_2_L1I_pq_access 0
Core_2_L1I_pq_forward 0
Core_2_L1I_pq_merged 0
Core_2_L1I_pq_to_cache 0
Core_2_L1I_pq_full 0

Core_2_L1I_acc_epochs 179984
Core_2_L1I_acc_level_0 179984
Core_2_L1I_acc_level_1 0
Core_2_L1I_acc_level_2 0
Core_2_L1I_acc_level_3 0
Core_2_L1I_acc_level_4 0
Core_2_L1I_acc_level_5 0
Core_2_L1I_acc_level_6 0
Core_2_L1I_acc_level_7 0
Core_2_L1I_acc_level_8 0
Core_2_L1I_acc_level_9 0

Core_2_L2C_total_access 1577055
Core_2_L2C_total_hit 639374
Core_2_L2C_total_miss 937681
Core_2_L2C_loads 333846
Core_2_L2C_load_hit 201866
Core_2_L2C_load_miss 131980
Core_2_L2C_RFOs 859
Core_2_L2C_RFO_hit 244
Core_2_L2C_RFO_miss 615
Core_2_L2C_prefetches 1093990
Core_2_L2C_prefetch_hit 291894
Core_2_L2C_prefetch_miss 802096
Core_2_L2C_writebacks 148360
Core_2_L2C_writeback_hit 145370
Core_2_L2C_writeback_miss 2990
Core_2_L2C_prefetch_requested 1737880
Core_2_L2C_prefetch_dropped 35
Core_2_L2C_prefetch_issued 1737845
Core_2_L2C_prefetch_filled 1273760
Core_2_L2C_prefetch_useful 301490
Core_2_L2C_prefetch_useless 969506
Core_2_L2C_prefetch_late 685
Core_2_L2C_average_miss_latency 196.48520

Core_2_L2C_rq_access 402976
Core_2_L2C_rq_forward 0
Core_2_L2C_rq_merged 0
Core_2_L2C_rq_to_cache 402976
Core_2_L2C_rq_full 0

Core_2_L2C_wq_access 178315
Core_2_L2C_wq_forward 1
Core_2_L2C_wq_merged 0
Core_2_L2C_wq_to_cache 178315
Core_2_L2C_wq_full 0

Core_2_L2C_pq_access 1737845
Core_2_L2C_pq_forward 0
Core_2_L2C_pq_merged 0
Core_2_L2C_pq_to_cache 1737844
Core_2_L2C_pq_full 0

Core_2_L2C_acc_epochs 179984
Core_2_L2C_acc_level_0 64681
Core_2_L2C_acc_level_1 45940
Core_2_L2C_acc_level_2 21123
Core_2_L2C_acc_level_3 11483
Core_2_L2C_acc_level_4 6435
Core_2_L2C_acc_level_5 6835
Core_2_L2C_acc_level_6 4113
Core_2_L2C_acc_level_7 3256
Core_2_L2C_acc_level_8 2192
Core_2_L2C_acc_level_9 13926

Core_2_LLC_total_access 1081541
Core_2_LLC_total_hit 655511
Core_2_LLC_total_miss 426030
Core_2_LLC_loads 131451
Core_2_LLC_load_hit 84480
Core_2_LLC_load_miss 46971
Core_2_LLC_RFOs 611
Core_2_LLC_RFO_hit 123
Core_2_LLC_RFO_miss 488
Core_2_LLC_prefetches 802627
Core_2_LLC_prefetch_hit 425794
Core_2_LLC_prefetch_miss 376833
Core_2_LLC_writebacks 146852
Core_2_LLC_writeback_hit 145114
Core_2_LLC_writeback_miss 1738
Core_2_LLC_prefetch_requested 0
Core_2_LLC_prefetch_dropped 0
Core_2_LLC_prefetch_issued 0
Core_2_LLC_prefetch_filled 2332052
Core_2_LLC_prefetch_useful 162037
Core_2_LLC_prefetch_useless 2094901
Core_2_LLC_prefetch_late 0
Core_2_LLC_average_miss_latency 827.40559

Core_2_LLC_rq_access 1107416
Core_2_LLC_rq_forward 0
Core_2_LLC_rq_merged 0
Core_2_LLC_rq_to_cache 1107404
Core_2_LLC_rq_full 0

Core_2_LLC_wq_access 1547130
Core_2_LLC_wq_forward 40
Core_2_LLC_wq_merged 0
Core_2_LLC_wq_to_cache 1547130
Core_2_LLC_wq_full 0

Core_2_LLC_pq_access 7910207
Core_2_LLC_pq_forward 0
Core_2_LLC_pq_merged 0
Core_2_LLC_pq_to_cache 7910173
Core_2_LLC_pq_full 0

Core_2_LLC_acc_epochs 1186103
Core_2_LLC_acc_level_0 1102898
Core_2_LLC_acc_level_1 38986
Core_2_LLC_acc_level_2 21078
Core_2_LLC_acc_level_3 4769
Core_2_LLC_acc_level_4 1248
Core_2_LLC_acc_level_5 12542
Core_2_LLC_acc_level_6 1311
Core_2_LLC_acc_level_7 907
Core_2_LLC_acc_level_8 291
Core_2_LLC_acc_level_9 2073

Core_2_major_page_fault 0
Core_2_minor_page_fault 2062

Core_3_instructions 150000002
Core_3_cycles 952190717
Core_3_IPC 0.15753

Core_3_branch_prediction_accuracy 99.75453
Core_3_branch_MPKI 0.51082
Core_3_average_ROB_occupancy_at_mispredict 239.52592

Core_3_L1D_total_access 22834309
Core_3_L1D_total_hit 22506960
Core_3_L1D_total_miss 327349
Core_3_L1D_loads 13858072
Core_3_L1D_load_hit 13531111
Core_3_L1D_load_miss 326961
Core_3_L1D_RFOs 8976237
Core_3_L1D_RFO_hit 8975849
Core_3_L1D_RFO_miss 388
Core_3_L1D_prefetches 0
Core_3_L1D_prefetch_hit 0
Core_3_L1D_prefetch_miss 0
Core_3_L1D_writebacks 0
Core_3_L1D_writeback_hit 0
Core_3_L1D_writeback_miss 0
Core_3_L1D_prefetch_requested 0
Core_3_L1D_prefetch_dropped 0
Core_3_L1D_prefetch_issued 0
Core_3_L1D_prefetch_filled 0
Core_3_L1D_prefetch_useful 0
Core_3_L1D_prefetch_useless 0
Core_3_L1D_prefetch_late 0
Core_3_L1D_average_miss_latency 127.52973

Core_3_L1D_rq_access 25273132
Core_3_L1D_rq_forward 0
Core_3_L1D_rq_merged 7895497
Core_3_L1D_rq_to_cache 17377447
Core_3_L1D_rq_full 0

Core_3_L1D_wq_access 11452264
Core_3_L1D_wq_forward 188
Core_3_L1D_wq_merged 202094
Core_3_L1D_wq_to_cache 11250170
Core_3_L1D_wq_full 0

Core_3_L1D_pq_access 0
Core_3_L1D_pq_forward 0
Core_3_L1D_pq_merged 0
Core_3_L1D_pq_to_cache 0
Core_3_L1D_pq_full 0

Core_3_L1D_acc_epochs 180949
Core_3_L1D_acc_level_0 180949
Core_3_L1D_acc_level_1 0
Core_3_L1D_acc_level_2 0
Core_3_L1D_acc_level_3 0
Core_3_L1D_acc_level_4 0
Core_3_L1D_acc_level_5 0
Core_3_L1D_acc_level_6 0
Core_3_L1D_acc_level_7 0
Core_3_L1D_acc_level_8 0
Core_3_L1D_acc_level_9 0

Core_3_L1I_total_access 42544116
Core_3_L1I_total_hit 42544116
Core_3_L1I_total_miss 0
Core_3_L1I_loads 42544116
Core_3_L1I_load_hit 42544116
Core_3_L1I_load_miss 0
Core_3_L1I_RFOs 0
Core_3_L1I_RFO_hit 0
Core_3_L1I_RFO_miss 0
Core_3_L1I_prefetches 0
Core_3_L1I_prefetch_hit 0
Core_3_L1I_prefetch_miss 0
Core_3_L1I_writebacks 0
Core_3_L1I_writeback_hit 0
Core_3_L1I_writeback_miss 0
Core_3_L1I_prefetch_requested 0
Core_3_L1I_prefetch_dropped 0
Core_3_L1I_prefetch_issued 0
Core_3_L1I_prefetch_filled 0
Core_3_L1I_prefetch_useful 0
Core_3_L1I_prefetch_useless 0
Core_3_L1I_prefetch_late 0
Core_3_L1I_average_miss_latency -nan

Core_3_L1I_rq_access 187989434
Core_3_L1I_rq_forward 0
Core_3_L1I_rq_merged 134680522
Core_3_L1I_rq_to_cache 53308912
Core_3_L1I_rq_full 0

Core_3_L1I_wq_access 0
Core_3_L1I_wq_forward 0
Core_3_L1I_wq_merged 0
Core_3_L1I_wq_to_cache 0
Core_3_L1I_wq_full 0

Core_3_L1I_pq_access 0
Core_3_L1I_pq_forward 0
Core_3_L1I_pq_merged 0
Core_3_L1I_pq_to_cache 0
Core_3_L1I_pq_full 0

Core_3_L1I_acc_epochs 180949
Core_3_L1I_acc_level_0 180949
Core_3_L1I_acc_level_1 0
Core_3_L1I_acc_level_2 0
Core_3_L1I_acc_level_3 0
Core_3_L1I_acc_level_4 0
Core_3_L1I_acc_level_5 0
Core_3_L1I_acc_level_6 0
Core_3_L1I_acc_level_7 0
Core_3_L1I_acc_level_8 0
Core_3_L1I_acc_level_9 0

Core_3_L2C_total_access 1623322
Core_3_L2C_total_hit 637512
Core_3_L2C_total_miss 985810
Core_3_L2C_loads 326961
Core_3_L2C_load_hit 190118
Core_3_L2C_load_miss 136843
Core_3_L2C_RFOs 388
Core_3_L2C_RFO_hit 66
Core_3_L2C_RFO_miss 322
Core_3_L2C_prefetches 1149834
Core_3_L2C_prefetch_hit 305440
Core_3_L2C_prefetch_miss 844394
Core_3_L2C_writebacks 146139
Core_3_L2C_writeback_hit 141888
Core_3_L2C_writeback_miss 4251
Core_3_L2C_prefetch_requested 1869643
Core_3_L2C_prefetch_dropped 0
Core_3_L2C_prefetch_issued 1869643
Core_3_L2C_prefetch_filled 1365849
Core_3_L2C_prefetch_useful 297252
Core_3_L2C_prefetch_useless 1065789
Core_3_L2C_prefetch_late 671
Core_3_L2C_average_miss_latency 186.36718

Core_3_L2C_rq_access 410477
Core_3_L2C_rq_forward 0
Core_3_L2C_rq_merged 0
Core_3_L2C_rq_to_cache 410477
Core_3_L2C_rq_full 0

Core_3_L2C_wq_access 183185
Core_3_L2C_wq_forward 1
Core_3_L2C_wq_merged 0
Core_3_L2C_wq_to_cache 183185
Core_3_L2C_wq_full 0

Core_3_L2C_pq_access 1869643
Core_3_L2C_pq_forward 0
Core_3_L2C_pq_merged 0
Core_3_L2C_pq_to_cache 1869642
Core_3_L2C_pq_full 0

Core_3_L2C_acc_epochs 180949
Core_3_L2C_acc_level_0 71198
Core_3_L2C_acc_level_1 49009
Core_3_L2C_acc_level_2 20189
Core_3_L2C_acc_level_3 10192
Core_3_L2C_acc_level_4 5561
Core_3_L2C_acc_level_5 6022
Core_3_L2C_acc_level_6 3385
Core_3_L2C_acc_level_7 2708
Core_3_L2C_acc_level_8 1826
Core_3_L2C_acc_level_9 10859

Core_3_LLC_total_access 1126561
Core_3_LLC_total_hit 750546
Core_3_LLC_total_miss 376015
Core_3_LLC_loads 136318
Core_3_LLC_load_hit 93532
Core_3_LLC_load_miss 42786
Core_3_LLC_RFOs 321
Core_3_LLC_RFO_hit 15
Core_3_LLC_RFO_miss 306
Core_3_LLC_prefetches 844920
Core_3_LLC_prefetch_hit 513071
Core_3_LLC_prefetch_miss 331849
Core_3_LLC_writebacks 145002
Core_3_LLC_writeback_hit 143928
Core_3_LLC_writeback_miss 1074
Core_3_LLC_prefetch_requested 0
Core_3_LLC_prefetch_dropped 0
Core_3_LLC_prefetch_issued 0
Core_3_LLC_prefetch_filled 2332052
Core_3_LLC_prefetch_useful 162037
Core_3_LLC_prefetch_useless 2094901
Core_3_LLC_prefetch_late 0
Core_3_LLC_average_miss_latency 937.46155

Core_3_LLC_rq_access 1107416
Core_3_LLC_rq_forward 0
Core_3_LLC_rq_merged 0
Core_3_LLC_rq_to_cache 1107404
Core_3_LLC_rq_full 0

Core_3_LLC_wq_access 1547130
Core_3_LLC_wq_forward 40
Core_3_LLC_wq_merged 0
Core_3_LLC_wq_to_cache 1547130
Core_3_LLC_wq_full 0

Core_3_LLC_pq_access 7910207
Core_3_LLC_pq_forward 0
Core_3_LLC_pq_merged 0
Core_3_LLC_pq_to_cache 7910173
Core_3_LLC_pq_full 0

Core_3_LLC_acc_epochs 1186103
Core_3_LLC_acc_level_0 1102898
Core_3_LLC_acc_level_1 38986
Core_3_LLC_acc_level_2 21078
Core_3_LLC_acc_level_3 4769
Core_3_LLC_acc_level_4 1248
Core_3_LLC_acc_level_5 12542
Core_3_LLC_acc_level_6 1311
Core_3_LLC_acc_level_7 907
Core_3_LLC_acc_level_8 291
Core_3_LLC_acc_level_9 2073

Core_3_major_page_fault 0
Core_3_minor_page_fault 1717

dspatch.pb.lookup 1536660
dspatch.pb.hit 995268
dspatch.pb.evict 541328
dspatch.pb.insert 541392

dspatch.gen_pref.called 541392
dspatch.gen_pref.reset 131
dspatch.gen_pref.total 7226327

dspatch.dyn_selection.called 541392
dspatch.dyn_selection.none 0
dspatch.dyn_selection.accp_reason1 131
dspatch.dyn_selection.accp_reason2 483
dspatch.dyn_selection.covp_reason1 27
dspatch.dyn_selection.covp_reason2 540751

dspatch.spt.called 541328
dspatch.spt.or_count_incr 64893
dspatch.spt.measure_covP_incr 479099
dspatch.spt.bmp_cov_reset 5976
dspatch.spt.bmp_cov_update 2456
dspatch.spt.measure_accP_incr 103660
dspatch.spt.measure_accP_decr 437668
dspatch.spt.bmp_acc_update 541328

dspatch.pref_buffer.spilled 1849417
dspatch.pref_buffer.buffered 5376910
dspatch.pref_buffer.issued 5376666

dspatch.bw.called 4744409
dspatch.bw.bw_histogram 4704043,37410,2443,513,

dspatch.pb.lookup 1620319
dspatch.pb.hit 1047649
dspatch.pb.evict 572606
dspatch.pb.insert 572670

dspatch.gen_pref.called 572670
dspatch.gen_pref.reset 41
dspatch.gen_pref.total 6396369

dspatch.dyn_selection.called 572670
dspatch.dyn_selection.none 0
dspatch.dyn_selection.accp_reason1 41
dspatch.dyn_selection.accp_reason2 163
dspatch.dyn_selection.covp_reason1 20
dspatch.dyn_selection.covp_reason2 572446

dspatch.spt.called 572606
dspatch.spt.or_count_incr 77046
dspatch.spt.measure_covP_incr 533538
dspatch.spt.bmp_cov_reset 10275
dspatch.spt.bmp_cov_update 2182
dspatch.spt.measure_accP_incr 97581
dspatch.spt.measure_accP_decr 475025
dspatch.spt.bmp_acc_update 572606

dspatch.pref_buffer.spilled 1047179
dspatch.pref_buffer.buffered 5349190
dspatch.pref_buffer.issued 5349150

dspatch.bw.called 4744409
dspatch.bw.bw_histogram 4704043,37410,2443,513,

dspatch.pb.lookup 529213
dspatch.pb.hit 351470
dspatch.pb.evict 177679
dspatch.pb.insert 177743

dspatch.gen_pref.called 177743
dspatch.gen_pref.reset 42
dspatch.gen_pref.total 1785388

dspatch.dyn_selection.called 177743
dspatch.dyn_selection.none 1
dspatch.dyn_selection.accp_reason1 42
dspatch.dyn_selection.accp_reason2 130
dspatch.dyn_selection.covp_reason1 30
dspatch.dyn_selection.covp_reason2 177540

dspatch.spt.called 177679
dspatch.spt.or_count_incr 23165
dspatch.spt.measure_covP_incr 151187
dspatch.spt.bmp_cov_reset 2080
dspatch.spt.bmp_cov_update 957
dspatch.spt.measure_accP_incr 28074
dspatch.spt.measure_accP_decr 149605
dspatch.spt.bmp_acc_update 177679

dspatch.pref_buffer.spilled 47341
dspatch.pref_buffer.buffered 1738047
dspatch.pref_buffer.issued 1737880

dspatch.bw.called 4744409
dspatch.bw.bw_histogram 4704043,37410,2443,513,

dspatch.pb.lookup 538650
dspatch.pb.hit 358777
dspatch.pb.evict 179809
dspatch.pb.insert 179873

dspatch.gen_pref.called 179873
dspatch.gen_pref.reset 27
dspatch.gen_pref.total 1945683

dspatch.dyn_selection.called 179873
dspatch.dyn_selection.none 0
dspatch.dyn_selection.accp_reason1 27
dspatch.dyn_selection.accp_reason2 86
dspatch.dyn_selection.covp_reason1 14
dspatch.dyn_selection.covp_reason2 179746

dspatch.spt.called 179809
dspatch.spt.or_count_incr 25765
dspatch.spt.measure_covP_incr 155892
dspatch.spt.bmp_cov_reset 1599
dspatch.spt.bmp_cov_update 686
dspatch.spt.measure_accP_incr 24810
dspatch.spt.measure_accP_decr 154999
dspatch.spt.bmp_acc_update 179809

dspatch.pref_buffer.spilled 76040
dspatch.pref_buffer.buffered 1869643
dspatch.pref_buffer.issued 1869643

dspatch.bw.called 4744409
dspatch.bw.bw_histogram 4704043,37410,2443,513,

Channel_0_RQ_row_buffer_hit 170248
Channel_0_RQ_row_buffer_miss 821516
Channel_0_WQ_row_buffer_hit 24002
Channel_0_WQ_row_buffer_miss 277568
Channel_0_WQ_full 0
Channel_0_dbus_congested 365618

Channel_1_RQ_row_buffer_hit 168399
Channel_1_RQ_row_buffer_miss 819568
Channel_1_WQ_row_buffer_hit 23557
Channel_1_WQ_row_buffer_miss 276573
Channel_1_WQ_full 0
Channel_1_dbus_congested 361291

avg_congested_cycle 10

DRAM_bw_pochs 4744409
DRAM_bw_level_0 4704043
DRAM_bw_level_1 37410
DRAM_bw_level_2 2443
DRAM_bw_level_3 513
