*************************************************
   ChampSim Multicore Out-of-Order Simulator
   Last compiled: Apr 16 2025 16:07:36
*************************************************
parsing config file: /pref/Pythia/config/coop_pythia.ini
unable to parse section: , name: bool coop_rl_enable, value: true
unable to parse section: , name: coop_enable_adaptive_alpha, value: true

trace_0 /pref/Pythia/CLOUD9/traces/cloud9_phase4_core0.trace.xz
trace_1 /pref/Pythia/CLOUD9/traces/cloud9_phase4_core1.trace.xz
trace_2 /pref/Pythia/CLOUD9/traces/cloud9_phase4_core2.trace.xz
trace_3 /pref/Pythia/CLOUD9/traces/cloud9_phase4_core3.trace.xz
Initialize SHIP state
warmup_instructions 50000000
simulation_instructions 150000000
champsim_seed 7350
measure_ipc 0
measure_ipc_epoch 1000
measure_dram_bw 1
measure_dram_bw_epoch 256
measure_cache_acc 1
measure_cache_acc_epoch 1024
l1d_perfect 0
l2c_perfect 0
llc_perfect 0
l1d_semi_perfect 0
l2c_semi_perfect 0
llc_semi_perfect 0
semi_perfect_cache_page_buffer_size 64

num_cpus 4
cpu_freq 4000
dram_io_freq 2400
page_size 4096
block_size 64
max_read_per_cycle 8
max_fill_per_cycle 1
dram_channels 2
log2_dram_channels 1
dram_ranks 1
dram_banks 8
dram_rows 65536
dram_columns 128
dram_row_size 8
dram_size 8192
dram_pages 2097152
======= Prefetcher Knob Settings =======
coop_enable_multicore: 0
coop_enable_bw_throttling: 1
coop_rl_enable: 0
coop_rl_ipc_threshold: 
coop_rl_alpha_high_ipc: 0.05
coop_rl_alpha_low_ipc: 0.01
coop_rl_bw_threshold: 10
========================================
fetch_width 6
decode_width 6
exec_width 4
lq_width 2
sq_width 2
retire_width 4
scheduler_size 128
branch_mispredict_penalty 20
rob_size 256
lq_size 72
sq_size 56
num_instr_destinations_sparc 4
num_instr_destinations 2
num_instr_sources 4

itlb_set 16
itlb_way 8
itlb_rq_size 16
itlb_wq_size 16
itlb_pq_size 0
itlb_mshr_size 8
itlb_latency 1

dtlb_set 16
dtlb_way 4
dtlb_rq_size 16
dtlb_wq_size 16
dtlb_pq_size 0
dtlb_mshr_size 8
dtlb_latency 1

stlb_set 128
stlb_way 12
stlb_rq_size 32
stlb_wq_size 32
stlb_pq_size 0
stlb_mshr_size 16
stlb_latency 8

l1i_size 32
l1i_set 64
l1i_way 8
l1i_rq_size 64
l1i_wq_size 64
l1i_pq_size 8
l1i_mshr_size 8
l1i_latency 1

l1d_size 32
l1d_set 64
l1d_way 8
l1d_rq_size 64
l1d_wq_size 64
l1d_pq_size 32
l1d_mshr_size 16
l1d_latency 4

l2c_size 256
l2c_set 512
l2c_way 8
l2c_rq_size 128
l2c_wq_size 32
l2c_pq_size 128
l2c_mshr_size 128
l2c_latency 10

llc_size 8192
llc_set 8192
llc_way 16
llc_rq_size 256
llc_wq_size 512
llc_pq_size 128
llc_mshr_size 256
llc_latency 20

dram_channel_width 8
dram_wq_size 64
dram_rq_size 64
tRP 15
tRCD 15
tCAS 12.5
dram_dbus_turn_around_time 30
dram_write_high_wm 56
dram_write_low_wm 48
min_dram_writes_per_switch 16
dram_mtps 2400
dram_dbus_return_time 13

[CoopPythia Config]
 - Bandwidth-aware throttling: Enabled
 - Multicore cooperation: Disabled
 - RL Enabled: No
 - Adaptive Alpha: Enabled
 - IPC Threshold: 4
 - BW Threshold: 10
 - Alpha High: 0.05
 - Alpha Low: 0.01

Heartbeat CPU  2 instructions:    1000002 cycles:     503193 heartbeat IPC: 1.98731 cumulative IPC: 1.98731 (Simulation time: 0 hr 0 min 6 sec) 
Heartbeat CPU  3 instructions:    1000001 cycles:     523582 heartbeat IPC: 1.90992 cumulative IPC: 1.90992 (Simulation time: 0 hr 0 min 6 sec) 
Heartbeat CPU  1 instructions:    1000000 cycles:     619353 heartbeat IPC: 1.61459 cumulative IPC: 1.61459 (Simulation time: 0 hr 0 min 7 sec) 
Heartbeat CPU  0 instructions:    1000000 cycles:     657489 heartbeat IPC: 1.52094 cumulative IPC: 1.52094 (Simulation time: 0 hr 0 min 8 sec) 
Heartbeat CPU  2 instructions:    2000000 cycles:     976309 heartbeat IPC: 2.11364 cumulative IPC: 2.04853 (Simulation time: 0 hr 0 min 12 sec) 
Heartbeat CPU  3 instructions:    2000001 cycles:    1048522 heartbeat IPC: 1.90498 cumulative IPC: 1.90745 (Simulation time: 0 hr 0 min 12 sec) 
Heartbeat CPU  1 instructions:    2000001 cycles:    1231690 heartbeat IPC: 1.63309 cumulative IPC: 1.62379 (Simulation time: 0 hr 0 min 15 sec) 
Heartbeat CPU  0 instructions:    2000003 cycles:    1259190 heartbeat IPC: 1.66196 cumulative IPC: 1.58833 (Simulation time: 0 hr 0 min 15 sec) 
Heartbeat CPU  2 instructions:    3000002 cycles:    1449761 heartbeat IPC: 2.11215 cumulative IPC: 2.06931 (Simulation time: 0 hr 0 min 17 sec) 
Heartbeat CPU  3 instructions:    3000000 cycles:    1572419 heartbeat IPC: 1.90877 cumulative IPC: 1.90789 (Simulation time: 0 hr 0 min 19 sec) 
Heartbeat CPU  1 instructions:    3000000 cycles:    1848892 heartbeat IPC: 1.62021 cumulative IPC: 1.62259 (Simulation time: 0 hr 0 min 22 sec) 
Heartbeat CPU  0 instructions:    3000000 cycles:    1866900 heartbeat IPC: 1.64552 cumulative IPC: 1.60694 (Simulation time: 0 hr 0 min 22 sec) 
Heartbeat CPU  2 instructions:    4000000 cycles:    1910591 heartbeat IPC: 2.16999 cumulative IPC: 2.09359 (Simulation time: 0 hr 0 min 23 sec) 
Heartbeat CPU  3 instructions:    4000000 cycles:    2095678 heartbeat IPC: 1.91110 cumulative IPC: 1.90869 (Simulation time: 0 hr 0 min 25 sec) 
Heartbeat CPU  2 instructions:    5000000 cycles:    2381813 heartbeat IPC: 2.12214 cumulative IPC: 2.09924 (Simulation time: 0 hr 0 min 29 sec) 
Heartbeat CPU  1 instructions:    4000000 cycles:    2449191 heartbeat IPC: 1.66584 cumulative IPC: 1.63319 (Simulation time: 0 hr 0 min 29 sec) 
Heartbeat CPU  0 instructions:    4000000 cycles:    2471818 heartbeat IPC: 1.65312 cumulative IPC: 1.61824 (Simulation time: 0 hr 0 min 30 sec) 
Heartbeat CPU  3 instructions:    5000001 cycles:    2618806 heartbeat IPC: 1.91158 cumulative IPC: 1.90927 (Simulation time: 0 hr 0 min 31 sec) 
Heartbeat CPU  2 instructions:    6000003 cycles:    2847564 heartbeat IPC: 2.14708 cumulative IPC: 2.10707 (Simulation time: 0 hr 0 min 34 sec) 
Heartbeat CPU  0 instructions:    5000000 cycles:    3084780 heartbeat IPC: 1.63142 cumulative IPC: 1.62086 (Simulation time: 0 hr 0 min 37 sec) 
Heartbeat CPU  1 instructions:    5000003 cycles:    3107158 heartbeat IPC: 1.51984 cumulative IPC: 1.60919 (Simulation time: 0 hr 0 min 37 sec) 
Heartbeat CPU  3 instructions:    6000002 cycles:    3142799 heartbeat IPC: 1.90842 cumulative IPC: 1.90913 (Simulation time: 0 hr 0 min 38 sec) 
Heartbeat CPU  2 instructions:    7000002 cycles:    3330355 heartbeat IPC: 2.07129 cumulative IPC: 2.10188 (Simulation time: 0 hr 0 min 40 sec) 
Heartbeat CPU  3 instructions:    7000001 cycles:    3668752 heartbeat IPC: 1.90131 cumulative IPC: 1.90801 (Simulation time: 0 hr 0 min 44 sec) 
Heartbeat CPU  1 instructions:    6000000 cycles:    3715944 heartbeat IPC: 1.64261 cumulative IPC: 1.61466 (Simulation time: 0 hr 0 min 44 sec) 
Heartbeat CPU  2 instructions:    8000000 cycles:    3792799 heartbeat IPC: 2.16242 cumulative IPC: 2.10926 (Simulation time: 0 hr 0 min 45 sec) 
Heartbeat CPU  0 instructions:    6000000 cycles:    3823700 heartbeat IPC: 1.35333 cumulative IPC: 1.56916 (Simulation time: 0 hr 0 min 46 sec) 
Heartbeat CPU  3 instructions:    8000000 cycles:    4192137 heartbeat IPC: 1.91064 cumulative IPC: 1.90833 (Simulation time: 0 hr 0 min 50 sec) 
Heartbeat CPU  2 instructions:    9000000 cycles:    4259466 heartbeat IPC: 2.14286 cumulative IPC: 2.11294 (Simulation time: 0 hr 0 min 51 sec) 
Heartbeat CPU  1 instructions:    7000001 cycles:    4318132 heartbeat IPC: 1.66061 cumulative IPC: 1.62107 (Simulation time: 0 hr 0 min 52 sec) 
Heartbeat CPU  0 instructions:    7000003 cycles:    4442897 heartbeat IPC: 1.61500 cumulative IPC: 1.57555 (Simulation time: 0 hr 0 min 53 sec) 
Heartbeat CPU  3 instructions:    9000000 cycles:    4713542 heartbeat IPC: 1.91789 cumulative IPC: 1.90939 (Simulation time: 0 hr 0 min 56 sec) 
Heartbeat CPU  2 instructions:   10000001 cycles:    4725378 heartbeat IPC: 2.14633 cumulative IPC: 2.11623 (Simulation time: 0 hr 0 min 57 sec) 
Heartbeat CPU  1 instructions:    8000000 cycles:    4914575 heartbeat IPC: 1.67660 cumulative IPC: 1.62781 (Simulation time: 0 hr 0 min 59 sec) 
Heartbeat CPU  0 instructions:    8000000 cycles:    5055449 heartbeat IPC: 1.63251 cumulative IPC: 1.58245 (Simulation time: 0 hr 1 min 1 sec) 
Heartbeat CPU  2 instructions:   11000003 cycles:    5192621 heartbeat IPC: 2.14022 cumulative IPC: 2.11839 (Simulation time: 0 hr 1 min 2 sec) 
Heartbeat CPU  3 instructions:   10000003 cycles:    5235540 heartbeat IPC: 1.91572 cumulative IPC: 1.91002 (Simulation time: 0 hr 1 min 3 sec) 
Heartbeat CPU  1 instructions:    9000000 cycles:    5521353 heartbeat IPC: 1.64805 cumulative IPC: 1.63004 (Simulation time: 0 hr 1 min 6 sec) 
Heartbeat CPU  0 instructions:    9000003 cycles:    5594825 heartbeat IPC: 1.85400 cumulative IPC: 1.60863 (Simulation time: 0 hr 1 min 7 sec) 
Heartbeat CPU  2 instructions:   12000000 cycles:    5658158 heartbeat IPC: 2.14805 cumulative IPC: 2.12083 (Simulation time: 0 hr 1 min 8 sec) 
Heartbeat CPU  3 instructions:   11000001 cycles:    5760085 heartbeat IPC: 1.90641 cumulative IPC: 1.90969 (Simulation time: 0 hr 1 min 9 sec) 
Heartbeat CPU  0 instructions:   10000001 cycles:    6091686 heartbeat IPC: 2.01263 cumulative IPC: 1.64158 (Simulation time: 0 hr 1 min 13 sec) 
Heartbeat CPU  2 instructions:   13000003 cycles:    6126272 heartbeat IPC: 2.13624 cumulative IPC: 2.12201 (Simulation time: 0 hr 1 min 13 sec) 
Heartbeat CPU  1 instructions:   10000003 cycles:    6254810 heartbeat IPC: 1.36341 cumulative IPC: 1.59877 (Simulation time: 0 hr 1 min 15 sec) 
Heartbeat CPU  3 instructions:   12000000 cycles:    6284298 heartbeat IPC: 1.90762 cumulative IPC: 1.90952 (Simulation time: 0 hr 1 min 15 sec) 
Heartbeat CPU  2 instructions:   14000001 cycles:    6582998 heartbeat IPC: 2.18949 cumulative IPC: 2.12669 (Simulation time: 0 hr 1 min 19 sec) 
Heartbeat CPU  0 instructions:   11000000 cycles:    6669623 heartbeat IPC: 1.73029 cumulative IPC: 1.64927 (Simulation time: 0 hr 1 min 20 sec) 
Heartbeat CPU  3 instructions:   13000000 cycles:    6808472 heartbeat IPC: 1.90776 cumulative IPC: 1.90939 (Simulation time: 0 hr 1 min 21 sec) 
Heartbeat CPU  1 instructions:   11000002 cycles:    6867260 heartbeat IPC: 1.63278 cumulative IPC: 1.60180 (Simulation time: 0 hr 1 min 22 sec) 
Heartbeat CPU  2 instructions:   15000000 cycles:    7031735 heartbeat IPC: 2.22847 cumulative IPC: 2.13319 (Simulation time: 0 hr 1 min 24 sec) 
Heartbeat CPU  0 instructions:   12000000 cycles:    7277427 heartbeat IPC: 1.64527 cumulative IPC: 1.64893 (Simulation time: 0 hr 1 min 27 sec) 
Heartbeat CPU  3 instructions:   14000001 cycles:    7332739 heartbeat IPC: 1.90743 cumulative IPC: 1.90925 (Simulation time: 0 hr 1 min 28 sec) 
Heartbeat CPU  2 instructions:   16000000 cycles:    7480916 heartbeat IPC: 2.22627 cumulative IPC: 2.13878 (Simulation time: 0 hr 1 min 30 sec) 
Heartbeat CPU  1 instructions:   12000000 cycles:    7481219 heartbeat IPC: 1.62877 cumulative IPC: 1.60402 (Simulation time: 0 hr 1 min 30 sec) 
Heartbeat CPU  3 instructions:   15000000 cycles:    7857145 heartbeat IPC: 1.90692 cumulative IPC: 1.90909 (Simulation time: 0 hr 1 min 34 sec) 
Heartbeat CPU  0 instructions:   13000000 cycles:    7908735 heartbeat IPC: 1.58401 cumulative IPC: 1.64375 (Simulation time: 0 hr 1 min 35 sec) 
Heartbeat CPU  2 instructions:   17000001 cycles:    7938259 heartbeat IPC: 2.18654 cumulative IPC: 2.14153 (Simulation time: 0 hr 1 min 35 sec) 
Heartbeat CPU  1 instructions:   13000001 cycles:    8018451 heartbeat IPC: 1.86140 cumulative IPC: 1.62126 (Simulation time: 0 hr 1 min 36 sec) 
Heartbeat CPU  3 instructions:   16000000 cycles:    8375200 heartbeat IPC: 1.93030 cumulative IPC: 1.91040 (Simulation time: 0 hr 1 min 40 sec) 
Heartbeat CPU  2 instructions:   18000003 cycles:    8400165 heartbeat IPC: 2.16495 cumulative IPC: 2.14282 (Simulation time: 0 hr 1 min 41 sec) 
Heartbeat CPU  0 instructions:   14000003 cycles:    8520156 heartbeat IPC: 1.63554 cumulative IPC: 1.64316 (Simulation time: 0 hr 1 min 42 sec) 
Heartbeat CPU  1 instructions:   14000000 cycles:    8537422 heartbeat IPC: 1.92689 cumulative IPC: 1.63984 (Simulation time: 0 hr 1 min 42 sec) 
Heartbeat CPU  2 instructions:   19000001 cycles:    8871598 heartbeat IPC: 2.12119 cumulative IPC: 2.14167 (Simulation time: 0 hr 1 min 46 sec) 
Heartbeat CPU  3 instructions:   17000002 cycles:    8897207 heartbeat IPC: 1.91569 cumulative IPC: 1.91071 (Simulation time: 0 hr 1 min 47 sec) 
Heartbeat CPU  1 instructions:   15000002 cycles:    9102002 heartbeat IPC: 1.77123 cumulative IPC: 1.64799 (Simulation time: 0 hr 1 min 49 sec) 
Heartbeat CPU  0 instructions:   15000001 cycles:    9128041 heartbeat IPC: 1.64504 cumulative IPC: 1.64329 (Simulation time: 0 hr 1 min 49 sec) 
Heartbeat CPU  2 instructions:   20000000 cycles:    9331425 heartbeat IPC: 2.17473 cumulative IPC: 2.14330 (Simulation time: 0 hr 1 min 52 sec) 
Heartbeat CPU  3 instructions:   18000000 cycles:    9416484 heartbeat IPC: 1.92575 cumulative IPC: 1.91154 (Simulation time: 0 hr 1 min 53 sec) 
Heartbeat CPU  1 instructions:   16000000 cycles:    9730468 heartbeat IPC: 1.59117 cumulative IPC: 1.64432 (Simulation time: 0 hr 1 min 57 sec) 
Heartbeat CPU  2 instructions:   21000001 cycles:    9782933 heartbeat IPC: 2.21480 cumulative IPC: 2.14660 (Simulation time: 0 hr 1 min 57 sec) 
Heartbeat CPU  0 instructions:   16000000 cycles:    9782949 heartbeat IPC: 1.52693 cumulative IPC: 1.63550 (Simulation time: 0 hr 1 min 57 sec) 
Heartbeat CPU  3 instructions:   19000003 cycles:    9928011 heartbeat IPC: 1.95494 cumulative IPC: 1.91378 (Simulation time: 0 hr 1 min 59 sec) 
Heartbeat CPU  2 instructions:   22000000 cycles:   10240181 heartbeat IPC: 2.18699 cumulative IPC: 2.14840 (Simulation time: 0 hr 2 min 3 sec) 
Heartbeat CPU  1 instructions:   17000002 cycles:   10350082 heartbeat IPC: 1.61391 cumulative IPC: 1.64250 (Simulation time: 0 hr 2 min 4 sec) 
Heartbeat CPU  0 instructions:   17000000 cycles:   10381600 heartbeat IPC: 1.67042 cumulative IPC: 1.63751 (Simulation time: 0 hr 2 min 4 sec) 
Heartbeat CPU  3 instructions:   20000000 cycles:   10440914 heartbeat IPC: 1.94968 cumulative IPC: 1.91554 (Simulation time: 0 hr 2 min 5 sec) 
Heartbeat CPU  2 instructions:   23000001 cycles:   10695525 heartbeat IPC: 2.19614 cumulative IPC: 2.15043 (Simulation time: 0 hr 2 min 8 sec) 
Heartbeat CPU  3 instructions:   21000001 cycles:   10956825 heartbeat IPC: 1.93832 cumulative IPC: 1.91661 (Simulation time: 0 hr 2 min 12 sec) 
Heartbeat CPU  1 instructions:   18000001 cycles:   10960066 heartbeat IPC: 1.63939 cumulative IPC: 1.64233 (Simulation time: 0 hr 2 min 12 sec) 
Heartbeat CPU  0 instructions:   18000000 cycles:   10993375 heartbeat IPC: 1.63459 cumulative IPC: 1.63735 (Simulation time: 0 hr 2 min 12 sec) 
Heartbeat CPU  2 instructions:   24000000 cycles:   11148371 heartbeat IPC: 2.20825 cumulative IPC: 2.15278 (Simulation time: 0 hr 2 min 14 sec) 
Heartbeat CPU  3 instructions:   22000001 cycles:   11474077 heartbeat IPC: 1.93329 cumulative IPC: 1.91737 (Simulation time: 0 hr 2 min 18 sec) 
Heartbeat CPU  1 instructions:   19000000 cycles:   11550982 heartbeat IPC: 1.69229 cumulative IPC: 1.64488 (Simulation time: 0 hr 2 min 19 sec) 
Heartbeat CPU  2 instructions:   25000000 cycles:   11599564 heartbeat IPC: 2.21635 cumulative IPC: 2.15525 (Simulation time: 0 hr 2 min 19 sec) 
Heartbeat CPU  0 instructions:   19000000 cycles:   11602585 heartbeat IPC: 1.64147 cumulative IPC: 1.63757 (Simulation time: 0 hr 2 min 19 sec) 
Heartbeat CPU  3 instructions:   23000002 cycles:   11996175 heartbeat IPC: 1.91535 cumulative IPC: 1.91728 (Simulation time: 0 hr 2 min 24 sec) 
Heartbeat CPU  2 instructions:   26000003 cycles:   12050824 heartbeat IPC: 2.21602 cumulative IPC: 2.15753 (Simulation time: 0 hr 2 min 25 sec) 
Heartbeat CPU  1 instructions:   20000000 cycles:   12214369 heartbeat IPC: 1.50742 cumulative IPC: 1.63742 (Simulation time: 0 hr 2 min 27 sec) 
Heartbeat CPU  0 instructions:   20000000 cycles:   12280779 heartbeat IPC: 1.47450 cumulative IPC: 1.62856 (Simulation time: 0 hr 2 min 27 sec) 
Heartbeat CPU  2 instructions:   27000002 cycles:   12510962 heartbeat IPC: 2.17326 cumulative IPC: 2.15811 (Simulation time: 0 hr 2 min 30 sec) 
Heartbeat CPU  3 instructions:   24000000 cycles:   12514447 heartbeat IPC: 1.92948 cumulative IPC: 1.91778 (Simulation time: 0 hr 2 min 30 sec) 
Heartbeat CPU  1 instructions:   21000001 cycles:   12811793 heartbeat IPC: 1.67385 cumulative IPC: 1.63911 (Simulation time: 0 hr 2 min 34 sec) 
Heartbeat CPU  0 instructions:   21000000 cycles:   12951854 heartbeat IPC: 1.49015 cumulative IPC: 1.62139 (Simulation time: 0 hr 2 min 35 sec) 
Heartbeat CPU  2 instructions:   28000000 cycles:   12961104 heartbeat IPC: 2.22152 cumulative IPC: 2.16031 (Simulation time: 0 hr 2 min 36 sec) 
Heartbeat CPU  3 instructions:   25000001 cycles:   13033217 heartbeat IPC: 1.92764 cumulative IPC: 1.91818 (Simulation time: 0 hr 2 min 36 sec) 
Heartbeat CPU  1 instructions:   22000001 cycles:   13411457 heartbeat IPC: 1.66760 cumulative IPC: 1.64039 (Simulation time: 0 hr 2 min 41 sec) 
Heartbeat CPU  2 instructions:   29000003 cycles:   13414192 heartbeat IPC: 2.20708 cumulative IPC: 2.16189 (Simulation time: 0 hr 2 min 41 sec) 
Heartbeat CPU  3 instructions:   26000000 cycles:   13552562 heartbeat IPC: 1.92550 cumulative IPC: 1.91846 (Simulation time: 0 hr 2 min 43 sec) 
Heartbeat CPU  0 instructions:   22000002 cycles:   13563778 heartbeat IPC: 1.63419 cumulative IPC: 1.62197 (Simulation time: 0 hr 2 min 43 sec) 
Heartbeat CPU  2 instructions:   30000001 cycles:   13866507 heartbeat IPC: 2.21084 cumulative IPC: 2.16349 (Simulation time: 0 hr 2 min 47 sec) 
Heartbeat CPU  1 instructions:   23000000 cycles:   14011902 heartbeat IPC: 1.66543 cumulative IPC: 1.64146 (Simulation time: 0 hr 2 min 48 sec) 
Heartbeat CPU  3 instructions:   27000000 cycles:   14067904 heartbeat IPC: 1.94046 cumulative IPC: 1.91926 (Simulation time: 0 hr 2 min 49 sec) 
Heartbeat CPU  0 instructions:   23000002 cycles:   14161001 heartbeat IPC: 1.67442 cumulative IPC: 1.62418 (Simulation time: 0 hr 2 min 50 sec) 
Heartbeat CPU  2 instructions:   31000001 cycles:   14315154 heartbeat IPC: 2.22892 cumulative IPC: 2.16554 (Simulation time: 0 hr 2 min 52 sec) 
Heartbeat CPU  3 instructions:   28000000 cycles:   14583276 heartbeat IPC: 1.94035 cumulative IPC: 1.92001 (Simulation time: 0 hr 2 min 55 sec) 
Heartbeat CPU  0 instructions:   24000000 cycles:   14679858 heartbeat IPC: 1.92731 cumulative IPC: 1.63489 (Simulation time: 0 hr 2 min 56 sec) 
Heartbeat CPU  1 instructions:   24000000 cycles:   14708848 heartbeat IPC: 1.43483 cumulative IPC: 1.63167 (Simulation time: 0 hr 2 min 57 sec) 
Heartbeat CPU  2 instructions:   32000000 cycles:   14761240 heartbeat IPC: 2.24172 cumulative IPC: 2.16784 (Simulation time: 0 hr 2 min 57 sec) 
Heartbeat CPU  3 instructions:   29000000 cycles:   15103441 heartbeat IPC: 1.92247 cumulative IPC: 1.92009 (Simulation time: 0 hr 3 min 1 sec) 
Heartbeat CPU  0 instructions:   25000003 cycles:   15180433 heartbeat IPC: 1.99771 cumulative IPC: 1.64686 (Simulation time: 0 hr 3 min 2 sec) 
Heartbeat CPU  2 instructions:   33000002 cycles:   15215206 heartbeat IPC: 2.20281 cumulative IPC: 2.16888 (Simulation time: 0 hr 3 min 3 sec) 
Heartbeat CPU  1 instructions:   25000003 cycles:   15353137 heartbeat IPC: 1.55210 cumulative IPC: 1.62833 (Simulation time: 0 hr 3 min 4 sec) 
Heartbeat CPU  3 instructions:   30000001 cycles:   15628488 heartbeat IPC: 1.90459 cumulative IPC: 1.91957 (Simulation time: 0 hr 3 min 8 sec) 
Heartbeat CPU  2 instructions:   34000000 cycles:   15658817 heartbeat IPC: 2.25422 cumulative IPC: 2.17130 (Simulation time: 0 hr 3 min 8 sec) 
Heartbeat CPU  0 instructions:   26000002 cycles:   15757513 heartbeat IPC: 1.73286 cumulative IPC: 1.65001 (Simulation time: 0 hr 3 min 9 sec) 
Heartbeat CPU  1 instructions:   26000003 cycles:   15964471 heartbeat IPC: 1.63577 cumulative IPC: 1.62862 (Simulation time: 0 hr 3 min 12 sec) 
Heartbeat CPU  2 instructions:   35000001 cycles:   16117565 heartbeat IPC: 2.17985 cumulative IPC: 2.17154 (Simulation time: 0 hr 3 min 14 sec) 
Heartbeat CPU  3 instructions:   31000000 cycles:   16153500 heartbeat IPC: 1.90472 cumulative IPC: 1.91909 (Simulation time: 0 hr 3 min 14 sec) 
Heartbeat CPU  0 instructions:   27000002 cycles:   16374727 heartbeat IPC: 1.62018 cumulative IPC: 1.64888 (Simulation time: 0 hr 3 min 17 sec) 
Heartbeat CPU  1 instructions:   27000000 cycles:   16571829 heartbeat IPC: 1.64647 cumulative IPC: 1.62927 (Simulation time: 0 hr 3 min 19 sec) 
Heartbeat CPU  2 instructions:   36000000 cycles:   16574994 heartbeat IPC: 2.18613 cumulative IPC: 2.17195 (Simulation time: 0 hr 3 min 19 sec) 
Heartbeat CPU  3 instructions:   32000000 cycles:   16679490 heartbeat IPC: 1.90118 cumulative IPC: 1.91852 (Simulation time: 0 hr 3 min 21 sec) 
Heartbeat CPU  0 instructions:   28000000 cycles:   17003559 heartbeat IPC: 1.59025 cumulative IPC: 1.64671 (Simulation time: 0 hr 3 min 24 sec) 
Heartbeat CPU  2 instructions:   37000000 cycles:   17041447 heartbeat IPC: 2.14384 cumulative IPC: 2.17118 (Simulation time: 0 hr 3 min 25 sec) 
Heartbeat CPU  1 instructions:   28000000 cycles:   17083214 heartbeat IPC: 1.95547 cumulative IPC: 1.63904 (Simulation time: 0 hr 3 min 25 sec) 
Heartbeat CPU  3 instructions:   33000001 cycles:   17204051 heartbeat IPC: 1.90636 cumulative IPC: 1.91815 (Simulation time: 0 hr 3 min 27 sec) 
Heartbeat CPU  2 instructions:   38000002 cycles:   17494689 heartbeat IPC: 2.20633 cumulative IPC: 2.17209 (Simulation time: 0 hr 3 min 30 sec) 
Heartbeat CPU  1 instructions:   29000000 cycles:   17585007 heartbeat IPC: 1.99285 cumulative IPC: 1.64913 (Simulation time: 0 hr 3 min 31 sec) 
Heartbeat CPU  0 instructions:   29000002 cycles:   17611872 heartbeat IPC: 1.64389 cumulative IPC: 1.64662 (Simulation time: 0 hr 3 min 32 sec) 
Heartbeat CPU  3 instructions:   34000001 cycles:   17727680 heartbeat IPC: 1.90975 cumulative IPC: 1.91790 (Simulation time: 0 hr 3 min 33 sec) 
Heartbeat CPU  2 instructions:   39000000 cycles:   17944235 heartbeat IPC: 2.22446 cumulative IPC: 2.17340 (Simulation time: 0 hr 3 min 36 sec) 
Heartbeat CPU  1 instructions:   30000001 cycles:   18162530 heartbeat IPC: 1.73153 cumulative IPC: 1.65175 (Simulation time: 0 hr 3 min 38 sec) 
Heartbeat CPU  0 instructions:   30000001 cycles:   18247117 heartbeat IPC: 1.57419 cumulative IPC: 1.64410 (Simulation time: 0 hr 3 min 39 sec) 
Heartbeat CPU  3 instructions:   35000003 cycles:   18251766 heartbeat IPC: 1.90809 cumulative IPC: 1.91762 (Simulation time: 0 hr 3 min 39 sec) 
Heartbeat CPU  2 instructions:   40000000 cycles:   18396789 heartbeat IPC: 2.20968 cumulative IPC: 2.17429 (Simulation time: 0 hr 3 min 41 sec) 
Heartbeat CPU  3 instructions:   36000000 cycles:   18777677 heartbeat IPC: 1.90146 cumulative IPC: 1.91717 (Simulation time: 0 hr 3 min 46 sec) 
Heartbeat CPU  1 instructions:   31000001 cycles:   18788718 heartbeat IPC: 1.59696 cumulative IPC: 1.64993 (Simulation time: 0 hr 3 min 46 sec) 
Heartbeat CPU  2 instructions:   41000002 cycles:   18847785 heartbeat IPC: 2.21732 cumulative IPC: 2.17532 (Simulation time: 0 hr 3 min 47 sec) 
Heartbeat CPU  0 instructions:   31000000 cycles:   18867664 heartbeat IPC: 1.61148 cumulative IPC: 1.64302 (Simulation time: 0 hr 3 min 47 sec) 
Heartbeat CPU  2 instructions:   42000003 cycles:   19294006 heartbeat IPC: 2.24104 cumulative IPC: 2.17684 (Simulation time: 0 hr 3 min 52 sec) 
Heartbeat CPU  3 instructions:   37000002 cycles:   19300155 heartbeat IPC: 1.91396 cumulative IPC: 1.91708 (Simulation time: 0 hr 3 min 52 sec) 
Heartbeat CPU  1 instructions:   32000000 cycles:   19405064 heartbeat IPC: 1.62246 cumulative IPC: 1.64905 (Simulation time: 0 hr 3 min 53 sec) 
Heartbeat CPU  0 instructions:   32000000 cycles:   19473226 heartbeat IPC: 1.65136 cumulative IPC: 1.64328 (Simulation time: 0 hr 3 min 54 sec) 
Heartbeat CPU  2 instructions:   43000003 cycles:   19745394 heartbeat IPC: 2.21539 cumulative IPC: 2.17772 (Simulation time: 0 hr 3 min 58 sec) 
Heartbeat CPU  3 instructions:   38000000 cycles:   19824830 heartbeat IPC: 1.90594 cumulative IPC: 1.91679 (Simulation time: 0 hr 3 min 59 sec) 
Heartbeat CPU  1 instructions:   33000000 cycles:   20014880 heartbeat IPC: 1.63984 cumulative IPC: 1.64877 (Simulation time: 0 hr 4 min 1 sec) 
Heartbeat CPU  0 instructions:   33000003 cycles:   20077023 heartbeat IPC: 1.65619 cumulative IPC: 1.64367 (Simulation time: 0 hr 4 min 2 sec) 
Heartbeat CPU  2 instructions:   44000000 cycles:   20201281 heartbeat IPC: 2.19352 cumulative IPC: 2.17808 (Simulation time: 0 hr 4 min 3 sec) 
Heartbeat CPU  3 instructions:   39000003 cycles:   20347025 heartbeat IPC: 1.91500 cumulative IPC: 1.91674 (Simulation time: 0 hr 4 min 5 sec) 
Heartbeat CPU  2 instructions:   45000001 cycles:   20653087 heartbeat IPC: 2.21334 cumulative IPC: 2.17885 (Simulation time: 0 hr 4 min 9 sec) 
Heartbeat CPU  1 instructions:   34000001 cycles:   20653477 heartbeat IPC: 1.56593 cumulative IPC: 1.64621 (Simulation time: 0 hr 4 min 9 sec) 
Heartbeat CPU  0 instructions:   34000000 cycles:   20690107 heartbeat IPC: 1.63109 cumulative IPC: 1.64330 (Simulation time: 0 hr 4 min 9 sec) 
Heartbeat CPU  3 instructions:   40000000 cycles:   20871834 heartbeat IPC: 1.90545 cumulative IPC: 1.91646 (Simulation time: 0 hr 4 min 11 sec) 
Heartbeat CPU  2 instructions:   46000000 cycles:   21108877 heartbeat IPC: 2.19399 cumulative IPC: 2.17918 (Simulation time: 0 hr 4 min 14 sec) 
Heartbeat CPU  1 instructions:   35000000 cycles:   21270947 heartbeat IPC: 1.61951 cumulative IPC: 1.64544 (Simulation time: 0 hr 4 min 16 sec) 
Heartbeat CPU  3 instructions:   41000002 cycles:   21397679 heartbeat IPC: 1.90170 cumulative IPC: 1.91610 (Simulation time: 0 hr 4 min 17 sec) 
Heartbeat CPU  0 instructions:   35000000 cycles:   21434066 heartbeat IPC: 1.34416 cumulative IPC: 1.63291 (Simulation time: 0 hr 4 min 18 sec) 
Heartbeat CPU  2 instructions:   47000001 cycles:   21562689 heartbeat IPC: 2.20356 cumulative IPC: 2.17969 (Simulation time: 0 hr 4 min 19 sec) 
Heartbeat CPU  1 instructions:   36000000 cycles:   21864156 heartbeat IPC: 1.68575 cumulative IPC: 1.64653 (Simulation time: 0 hr 4 min 23 sec) 
Heartbeat CPU  3 instructions:   42000000 cycles:   21923258 heartbeat IPC: 1.90266 cumulative IPC: 1.91577 (Simulation time: 0 hr 4 min 24 sec) 
Heartbeat CPU  2 instructions:   48000000 cycles:   22010956 heartbeat IPC: 2.23081 cumulative IPC: 2.18073 (Simulation time: 0 hr 4 min 25 sec) 
Heartbeat CPU  0 instructions:   36000000 cycles:   22046811 heartbeat IPC: 1.63200 cumulative IPC: 1.63289 (Simulation time: 0 hr 4 min 25 sec) 
Heartbeat CPU  3 instructions:   43000001 cycles:   22445776 heartbeat IPC: 1.91381 cumulative IPC: 1.91573 (Simulation time: 0 hr 4 min 30 sec) 
Heartbeat CPU  2 instructions:   49000001 cycles:   22460662 heartbeat IPC: 2.22368 cumulative IPC: 2.18159 (Simulation time: 0 hr 4 min 30 sec) 
Heartbeat CPU  1 instructions:   37000001 cycles:   22467546 heartbeat IPC: 1.65730 cumulative IPC: 1.64682 (Simulation time: 0 hr 4 min 30 sec) 
Heartbeat CPU  0 instructions:   37000002 cycles:   22660829 heartbeat IPC: 1.62862 cumulative IPC: 1.63277 (Simulation time: 0 hr 4 min 33 sec) 
Heartbeat CPU  2 instructions:   50000000 cycles:   22904152 heartbeat IPC: 2.25484 cumulative IPC: 2.18301 (Simulation time: 0 hr 4 min 36 sec) 
Heartbeat CPU  3 instructions:   44000000 cycles:   22972207 heartbeat IPC: 1.89958 cumulative IPC: 1.91536 (Simulation time: 0 hr 4 min 36 sec) 
Heartbeat CPU  1 instructions:   38000002 cycles:   23069573 heartbeat IPC: 1.66106 cumulative IPC: 1.64719 (Simulation time: 0 hr 4 min 37 sec) 
Heartbeat CPU  0 instructions:   38000003 cycles:   23242293 heartbeat IPC: 1.71980 cumulative IPC: 1.63495 (Simulation time: 0 hr 4 min 39 sec) 
Heartbeat CPU  2 instructions:   51000001 cycles:   23357229 heartbeat IPC: 2.20713 cumulative IPC: 0.04281 (Simulation time: 0 hr 4 min 41 sec) 
Heartbeat CPU  3 instructions:   45000002 cycles:   23499307 heartbeat IPC: 1.89718 cumulative IPC: 1.91495 (Simulation time: 0 hr 4 min 42 sec) 
Heartbeat CPU  0 instructions:   39000002 cycles:   23743056 heartbeat IPC: 1.99695 cumulative IPC: 1.64259 (Simulation time: 0 hr 4 min 45 sec) 
Heartbeat CPU  1 instructions:   39000003 cycles:   23797086 heartbeat IPC: 1.37455 cumulative IPC: 1.63886 (Simulation time: 0 hr 4 min 45 sec) 
Heartbeat CPU  2 instructions:   52000000 cycles:   23819429 heartbeat IPC: 2.16356 cumulative IPC: 0.08397 (Simulation time: 0 hr 4 min 46 sec) 
Heartbeat CPU  3 instructions:   46000001 cycles:   24025513 heartbeat IPC: 1.90039 cumulative IPC: 1.91463 (Simulation time: 0 hr 4 min 48 sec) 
Heartbeat CPU  0 instructions:   40000000 cycles:   24236340 heartbeat IPC: 2.02723 cumulative IPC: 1.65041 (Simulation time: 0 hr 4 min 50 sec) 
Heartbeat CPU  2 instructions:   53000002 cycles:   24282887 heartbeat IPC: 2.15770 cumulative IPC: 0.12354 (Simulation time: 0 hr 4 min 51 sec) 
Heartbeat CPU  1 instructions:   40000000 cycles:   24406823 heartbeat IPC: 1.64005 cumulative IPC: 1.63889 (Simulation time: 0 hr 4 min 52 sec) 
Heartbeat CPU  3 instructions:   47000003 cycles:   24552428 heartbeat IPC: 1.89784 cumulative IPC: 1.91427 (Simulation time: 0 hr 4 min 54 sec) 
Heartbeat CPU  2 instructions:   54000000 cycles:   24736098 heartbeat IPC: 2.20647 cumulative IPC: 0.16171 (Simulation time: 0 hr 4 min 56 sec) 
Heartbeat CPU  0 instructions:   41000000 cycles:   24841072 heartbeat IPC: 1.65363 cumulative IPC: 1.65049 (Simulation time: 0 hr 4 min 57 sec) 
Heartbeat CPU  1 instructions:   41000000 cycles:   25025158 heartbeat IPC: 1.61725 cumulative IPC: 1.63835 (Simulation time: 0 hr 4 min 59 sec) 
Heartbeat CPU  3 instructions:   48000000 cycles:   25078723 heartbeat IPC: 1.90007 cumulative IPC: 1.91397 (Simulation time: 0 hr 5 min 0 sec) 
Heartbeat CPU  2 instructions:   55000002 cycles:   25184847 heartbeat IPC: 2.22842 cumulative IPC: 0.19853 (Simulation time: 0 hr 5 min 1 sec) 
Heartbeat CPU  0 instructions:   42000001 cycles:   25457393 heartbeat IPC: 1.62253 cumulative IPC: 1.64982 (Simulation time: 0 hr 5 min 5 sec) 
Heartbeat CPU  3 instructions:   49000002 cycles:   25604326 heartbeat IPC: 1.90258 cumulative IPC: 1.91374 (Simulation time: 0 hr 5 min 6 sec) 
Heartbeat CPU  1 instructions:   42000000 cycles:   25607644 heartbeat IPC: 1.71678 cumulative IPC: 1.64014 (Simulation time: 0 hr 5 min 6 sec) 
Heartbeat CPU  2 instructions:   56000000 cycles:   25632435 heartbeat IPC: 2.23419 cumulative IPC: 0.23408 (Simulation time: 0 hr 5 min 7 sec) 
Heartbeat CPU  0 instructions:   43000000 cycles:   26084039 heartbeat IPC: 1.59580 cumulative IPC: 1.64852 (Simulation time: 0 hr 5 min 12 sec) 
Heartbeat CPU  2 instructions:   57000003 cycles:   26085971 heartbeat IPC: 2.20490 cumulative IPC: 0.26834 (Simulation time: 0 hr 5 min 12 sec) 
Heartbeat CPU  1 instructions:   43000000 cycles:   26110947 heartbeat IPC: 1.98687 cumulative IPC: 1.64682 (Simulation time: 0 hr 5 min 12 sec) 
Heartbeat CPU  3 instructions:   50000002 cycles:   26128278 heartbeat IPC: 1.90857 cumulative IPC: 1.91364 (Simulation time: 0 hr 5 min 12 sec) 
Heartbeat CPU  2 instructions:   58000003 cycles:   26538549 heartbeat IPC: 2.20956 cumulative IPC: 0.30145 (Simulation time: 0 hr 5 min 17 sec) 
Heartbeat CPU  1 instructions:   44000000 cycles:   26607856 heartbeat IPC: 2.01244 cumulative IPC: 1.65365 (Simulation time: 0 hr 5 min 18 sec) 
Heartbeat CPU  3 instructions:   51000000 cycles:   26655053 heartbeat IPC: 1.89834 cumulative IPC: 0.03752 (Simulation time: 0 hr 5 min 18 sec) 
Heartbeat CPU  0 instructions:   44000000 cycles:   26691855 heartbeat IPC: 1.64523 cumulative IPC: 1.64844 (Simulation time: 0 hr 5 min 19 sec) 
Heartbeat CPU  2 instructions:   59000000 cycles:   26986003 heartbeat IPC: 2.23486 cumulative IPC: 0.33351 (Simulation time: 0 hr 5 min 22 sec) 
Heartbeat CPU  3 instructions:   52000000 cycles:   27181255 heartbeat IPC: 1.90041 cumulative IPC: 0.07358 (Simulation time: 0 hr 5 min 24 sec) 
Heartbeat CPU  1 instructions:   45000000 cycles:   27214163 heartbeat IPC: 1.64933 cumulative IPC: 1.65355 (Simulation time: 0 hr 5 min 25 sec) 
Heartbeat CPU  0 instructions:   45000002 cycles:   27346616 heartbeat IPC: 1.52728 cumulative IPC: 1.64554 (Simulation time: 0 hr 5 min 26 sec) 
Heartbeat CPU  2 instructions:   60000000 cycles:   27438762 heartbeat IPC: 2.20868 cumulative IPC: 0.36445 (Simulation time: 0 hr 5 min 27 sec) 
Heartbeat CPU  3 instructions:   53000001 cycles:   27707171 heartbeat IPC: 1.90145 cumulative IPC: 0.10828 (Simulation time: 0 hr 5 min 30 sec) 
Heartbeat CPU  1 instructions:   46000000 cycles:   27839622 heartbeat IPC: 1.59883 cumulative IPC: 1.65232 (Simulation time: 0 hr 5 min 32 sec) 
Heartbeat CPU  2 instructions:   61000000 cycles:   27900289 heartbeat IPC: 2.16672 cumulative IPC: 0.39426 (Simulation time: 0 hr 5 min 33 sec) 
Heartbeat CPU  0 instructions:   46000000 cycles:   27952318 heartbeat IPC: 1.65097 cumulative IPC: 1.64566 (Simulation time: 0 hr 5 min 33 sec) 
Heartbeat CPU  3 instructions:   54000003 cycles:   28224393 heartbeat IPC: 1.93341 cumulative IPC: 0.14172 (Simulation time: 0 hr 5 min 36 sec) 
Heartbeat CPU  2 instructions:   62000002 cycles:   28367256 heartbeat IPC: 2.14148 cumulative IPC: 0.42302 (Simulation time: 0 hr 5 min 38 sec) 
Heartbeat CPU  1 instructions:   47000001 cycles:   28458231 heartbeat IPC: 1.61653 cumulative IPC: 1.65154 (Simulation time: 0 hr 5 min 39 sec) 
Heartbeat CPU  0 instructions:   47000002 cycles:   28566113 heartbeat IPC: 1.62921 cumulative IPC: 1.64531 (Simulation time: 0 hr 5 min 40 sec) 
Heartbeat CPU  3 instructions:   55000000 cycles:   28749042 heartbeat IPC: 1.90603 cumulative IPC: 0.17392 (Simulation time: 0 hr 5 min 42 sec) 
Heartbeat CPU  2 instructions:   63000002 cycles:   28828096 heartbeat IPC: 2.16995 cumulative IPC: 0.45095 (Simulation time: 0 hr 5 min 43 sec) 
Heartbeat CPU  1 instructions:   48000000 cycles:   29066466 heartbeat IPC: 1.64410 cumulative IPC: 1.65139 (Simulation time: 0 hr 5 min 46 sec) 
Heartbeat CPU  0 instructions:   48000000 cycles:   29168902 heartbeat IPC: 1.65895 cumulative IPC: 1.64559 (Simulation time: 0 hr 5 min 47 sec) 
Heartbeat CPU  3 instructions:   56000000 cycles:   29276170 heartbeat IPC: 1.89707 cumulative IPC: 0.20494 (Simulation time: 0 hr 5 min 49 sec) 
Heartbeat CPU  2 instructions:   64000000 cycles:   29294563 heartbeat IPC: 2.14377 cumulative IPC: 0.47790 (Simulation time: 0 hr 5 min 49 sec) 
Heartbeat CPU  1 instructions:   49000001 cycles:   29710121 heartbeat IPC: 1.55363 cumulative IPC: 1.64927 (Simulation time: 0 hr 5 min 53 sec) 
Heartbeat CPU  2 instructions:   65000003 cycles:   29749236 heartbeat IPC: 2.19939 cumulative IPC: 0.50421 (Simulation time: 0 hr 5 min 54 sec) 
Heartbeat CPU  0 instructions:   49000000 cycles:   29784053 heartbeat IPC: 1.62562 cumulative IPC: 1.64518 (Simulation time: 0 hr 5 min 54 sec) 
Heartbeat CPU  3 instructions:   57000001 cycles:   29803743 heartbeat IPC: 1.89547 cumulative IPC: 0.23487 (Simulation time: 0 hr 5 min 55 sec) 
Heartbeat CPU  2 instructions:   66000001 cycles:   30203065 heartbeat IPC: 2.20347 cumulative IPC: 0.52975 (Simulation time: 0 hr 5 min 59 sec) 
Heartbeat CPU  1 instructions:   50000002 cycles:   30320330 heartbeat IPC: 1.63878 cumulative IPC: 1.64906 (Simulation time: 0 hr 6 min 0 sec) 
Heartbeat CPU  3 instructions:   58000000 cycles:   30330960 heartbeat IPC: 1.89675 cumulative IPC: 0.26376 (Simulation time: 0 hr 6 min 0 sec) 
Heartbeat CPU  0 instructions:   50000001 cycles:   30523783 heartbeat IPC: 1.35185 cumulative IPC: 1.63807 (Simulation time: 0 hr 6 min 3 sec) 

Warmup complete CPU  0 instructions:   50000001 cycles:   30523783 (Simulation time: 0 hr 6 min 3 sec) 
Warmup complete CPU  1 instructions:   50342349 cycles:   30523782 (Simulation time: 0 hr 6 min 3 sec) 
Warmup complete CPU  2 instructions:   66704769 cycles:   30523783 (Simulation time: 0 hr 6 min 3 sec) 
Warmup complete CPU  3 instructions:   58364389 cycles:   30523783 (Simulation time: 0 hr 6 min 3 sec) 

Heartbeat CPU  2 instructions:   67000003 cycles:   31920128 heartbeat IPC: 0.58239 cumulative IPC: 0.21143 (Simulation time: 0 hr 6 min 5 sec) 
Heartbeat CPU  3 instructions:   59000000 cycles:   33996564 heartbeat IPC: 0.27281 cumulative IPC: 0.18303 (Simulation time: 0 hr 6 min 8 sec) 
Heartbeat CPU  1 instructions:   51000002 cycles:   34941447 heartbeat IPC: 0.21640 cumulative IPC: 0.14887 (Simulation time: 0 hr 6 min 10 sec) 
Heartbeat CPU  2 instructions:   68000000 cycles:   36408427 heartbeat IPC: 0.22280 cumulative IPC: 0.22010 (Simulation time: 0 hr 6 min 12 sec) 
Heartbeat CPU  0 instructions:   51000003 cycles:   37400821 heartbeat IPC: 0.14541 cumulative IPC: 0.14541 (Simulation time: 0 hr 6 min 14 sec) 
Heartbeat CPU  3 instructions:   60000000 cycles:   39475294 heartbeat IPC: 0.18252 cumulative IPC: 0.18272 (Simulation time: 0 hr 6 min 17 sec) 
Heartbeat CPU  2 instructions:   69000002 cycles:   41099156 heartbeat IPC: 0.21319 cumulative IPC: 0.21704 (Simulation time: 0 hr 6 min 20 sec) 
Heartbeat CPU  1 instructions:   52000000 cycles:   41665793 heartbeat IPC: 0.14871 cumulative IPC: 0.14877 (Simulation time: 0 hr 6 min 21 sec) 
Heartbeat CPU  0 instructions:   52000000 cycles:   44264720 heartbeat IPC: 0.14569 cumulative IPC: 0.14555 (Simulation time: 0 hr 6 min 25 sec) 
Heartbeat CPU  3 instructions:   61000003 cycles:   44935582 heartbeat IPC: 0.18314 cumulative IPC: 0.18288 (Simulation time: 0 hr 6 min 26 sec) 
Heartbeat CPU  2 instructions:   70000001 cycles:   45713101 heartbeat IPC: 0.21673 cumulative IPC: 0.21694 (Simulation time: 0 hr 6 min 27 sec) 
Heartbeat CPU  1 instructions:   53000003 cycles:   48398420 heartbeat IPC: 0.14853 cumulative IPC: 0.14868 (Simulation time: 0 hr 6 min 32 sec) 
Heartbeat CPU  0 instructions:   53000001 cycles:   49944276 heartbeat IPC: 0.17607 cumulative IPC: 0.15448 (Simulation time: 0 hr 6 min 34 sec) 
Heartbeat CPU  2 instructions:   71000003 cycles:   50179142 heartbeat IPC: 0.22391 cumulative IPC: 0.21853 (Simulation time: 0 hr 6 min 35 sec) 
Heartbeat CPU  3 instructions:   62000001 cycles:   50421596 heartbeat IPC: 0.18228 cumulative IPC: 0.18271 (Simulation time: 0 hr 6 min 35 sec) 
Heartbeat CPU  0 instructions:   54000001 cycles:   54095503 heartbeat IPC: 0.24089 cumulative IPC: 0.16969 (Simulation time: 0 hr 6 min 42 sec) 
Heartbeat CPU  2 instructions:   72000000 cycles:   54844615 heartbeat IPC: 0.21434 cumulative IPC: 0.21772 (Simulation time: 0 hr 6 min 43 sec) 
Heartbeat CPU  1 instructions:   54000000 cycles:   55569814 heartbeat IPC: 0.13944 cumulative IPC: 0.14604 (Simulation time: 0 hr 6 min 44 sec) 
Heartbeat CPU  3 instructions:   63000000 cycles:   55907134 heartbeat IPC: 0.18230 cumulative IPC: 0.18262 (Simulation time: 0 hr 6 min 45 sec) 
Heartbeat CPU  2 instructions:   73000002 cycles:   59291430 heartbeat IPC: 0.22488 cumulative IPC: 0.21883 (Simulation time: 0 hr 6 min 51 sec) 
Heartbeat CPU  0 instructions:   55000003 cycles:   59434005 heartbeat IPC: 0.18732 cumulative IPC: 0.17295 (Simulation time: 0 hr 6 min 51 sec) 
Heartbeat CPU  3 instructions:   64000000 cycles:   61402955 heartbeat IPC: 0.18196 cumulative IPC: 0.18251 (Simulation time: 0 hr 6 min 54 sec) 
Heartbeat CPU  1 instructions:   55000002 cycles:   62306772 heartbeat IPC: 0.14844 cumulative IPC: 0.14655 (Simulation time: 0 hr 6 min 56 sec) 
Heartbeat CPU  2 instructions:   74000003 cycles:   63896705 heartbeat IPC: 0.21714 cumulative IPC: 0.21860 (Simulation time: 0 hr 6 min 58 sec) 
Heartbeat CPU  0 instructions:   56000000 cycles:   66073203 heartbeat IPC: 0.15062 cumulative IPC: 0.16878 (Simulation time: 0 hr 7 min 2 sec) 
Heartbeat CPU  3 instructions:   65000002 cycles:   66881797 heartbeat IPC: 0.18252 cumulative IPC: 0.18251 (Simulation time: 0 hr 7 min 3 sec) 
Heartbeat CPU  2 instructions:   75000002 cycles:   68741619 heartbeat IPC: 0.20640 cumulative IPC: 0.21705 (Simulation time: 0 hr 7 min 6 sec) 
Heartbeat CPU  1 instructions:   56000000 cycles:   69071450 heartbeat IPC: 0.14783 cumulative IPC: 0.14677 (Simulation time: 0 hr 7 min 6 sec) 
Heartbeat CPU  3 instructions:   66000003 cycles:   72348526 heartbeat IPC: 0.18292 cumulative IPC: 0.18256 (Simulation time: 0 hr 7 min 12 sec) 
Heartbeat CPU  0 instructions:   57000002 cycles:   72895112 heartbeat IPC: 0.14659 cumulative IPC: 0.16521 (Simulation time: 0 hr 7 min 13 sec) 
Heartbeat CPU  2 instructions:   76000000 cycles:   73538723 heartbeat IPC: 0.20846 cumulative IPC: 0.21609 (Simulation time: 0 hr 7 min 14 sec) 
Heartbeat CPU  1 instructions:   57000001 cycles:   74890620 heartbeat IPC: 0.17185 cumulative IPC: 0.15006 (Simulation time: 0 hr 7 min 16 sec) 
Heartbeat CPU  3 instructions:   67000002 cycles:   77820302 heartbeat IPC: 0.18276 cumulative IPC: 0.18258 (Simulation time: 0 hr 7 min 21 sec) 
Heartbeat CPU  2 instructions:   77000002 cycles:   78072613 heartbeat IPC: 0.22056 cumulative IPC: 0.21652 (Simulation time: 0 hr 7 min 22 sec) 
Heartbeat CPU  1 instructions:   58000001 cycles:   79099168 heartbeat IPC: 0.23761 cumulative IPC: 0.15764 (Simulation time: 0 hr 7 min 24 sec) 
Heartbeat CPU  0 instructions:   58000001 cycles:   79716981 heartbeat IPC: 0.14659 cumulative IPC: 0.16262 (Simulation time: 0 hr 7 min 25 sec) 
Heartbeat CPU  2 instructions:   78000000 cycles:   82538144 heartbeat IPC: 0.22394 cumulative IPC: 0.21716 (Simulation time: 0 hr 7 min 30 sec) 
Heartbeat CPU  3 instructions:   68000000 cycles:   83310124 heartbeat IPC: 0.18215 cumulative IPC: 0.18254 (Simulation time: 0 hr 7 min 31 sec) 
Heartbeat CPU  1 instructions:   59000003 cycles:   84313780 heartbeat IPC: 0.19177 cumulative IPC: 0.16095 (Simulation time: 0 hr 7 min 32 sec) 
Heartbeat CPU  0 instructions:   59000000 cycles:   86519456 heartbeat IPC: 0.14701 cumulative IPC: 0.16073 (Simulation time: 0 hr 7 min 36 sec) 
Heartbeat CPU  2 instructions:   79000001 cycles:   86999002 heartbeat IPC: 0.22417 cumulative IPC: 0.21771 (Simulation time: 0 hr 7 min 37 sec) 
Heartbeat CPU  3 instructions:   69000003 cycles:   88788775 heartbeat IPC: 0.18253 cumulative IPC: 0.18254 (Simulation time: 0 hr 7 min 40 sec) 
Heartbeat CPU  1 instructions:   60000000 cycles:   90978115 heartbeat IPC: 0.15005 cumulative IPC: 0.15975 (Simulation time: 0 hr 7 min 43 sec) 
Heartbeat CPU  2 instructions:   80000000 cycles:   91450738 heartbeat IPC: 0.22463 cumulative IPC: 0.21822 (Simulation time: 0 hr 7 min 44 sec) 
Heartbeat CPU  0 instructions:   60000000 cycles:   93388521 heartbeat IPC: 0.14558 cumulative IPC: 0.15907 (Simulation time: 0 hr 7 min 47 sec) 
Heartbeat CPU  3 instructions:   70000003 cycles:   94236149 heartbeat IPC: 0.18357 cumulative IPC: 0.18263 (Simulation time: 0 hr 7 min 49 sec) 
Heartbeat CPU  2 instructions:   81000000 cycles:   96042724 heartbeat IPC: 0.21777 cumulative IPC: 0.21818 (Simulation time: 0 hr 7 min 52 sec) 
Heartbeat CPU  1 instructions:   61000002 cycles:   97685771 heartbeat IPC: 0.14908 cumulative IPC: 0.15869 (Simulation time: 0 hr 7 min 54 sec) 
Heartbeat CPU  3 instructions:   71000001 cycles:   99675246 heartbeat IPC: 0.18385 cumulative IPC: 0.18272 (Simulation time: 0 hr 7 min 58 sec) 
Heartbeat CPU  0 instructions:   61000000 cycles:  100194711 heartbeat IPC: 0.14693 cumulative IPC: 0.15789 (Simulation time: 0 hr 7 min 58 sec) 
Heartbeat CPU  2 instructions:   82000003 cycles:  100552412 heartbeat IPC: 0.22175 cumulative IPC: 0.21841 (Simulation time: 0 hr 7 min 59 sec) 
Heartbeat CPU  1 instructions:   62000002 cycles:  104423818 heartbeat IPC: 0.14841 cumulative IPC: 0.15775 (Simulation time: 0 hr 8 min 5 sec) 
Heartbeat CPU  2 instructions:   83000001 cycles:  105062248 heartbeat IPC: 0.22174 cumulative IPC: 0.21862 (Simulation time: 0 hr 8 min 6 sec) 
Heartbeat CPU  3 instructions:   72000000 cycles:  105136186 heartbeat IPC: 0.18312 cumulative IPC: 0.18275 (Simulation time: 0 hr 8 min 6 sec) 
Heartbeat CPU  0 instructions:   62000003 cycles:  107002070 heartbeat IPC: 0.14690 cumulative IPC: 0.15691 (Simulation time: 0 hr 8 min 10 sec) 
Heartbeat CPU  2 instructions:   84000000 cycles:  109651582 heartbeat IPC: 0.21790 cumulative IPC: 0.21857 (Simulation time: 0 hr 8 min 14 sec) 
Heartbeat CPU  3 instructions:   73000000 cycles:  110591922 heartbeat IPC: 0.18329 cumulative IPC: 0.18279 (Simulation time: 0 hr 8 min 15 sec) 
Heartbeat CPU  1 instructions:   63000001 cycles:  111164720 heartbeat IPC: 0.14835 cumulative IPC: 0.15696 (Simulation time: 0 hr 8 min 16 sec) 
Heartbeat CPU  0 instructions:   63000003 cycles:  113829904 heartbeat IPC: 0.14646 cumulative IPC: 0.15605 (Simulation time: 0 hr 8 min 21 sec) 
Heartbeat CPU  2 instructions:   85000001 cycles:  114153420 heartbeat IPC: 0.22213 cumulative IPC: 0.21876 (Simulation time: 0 hr 8 min 21 sec) 
Heartbeat CPU  3 instructions:   74000000 cycles:  116049601 heartbeat IPC: 0.18323 cumulative IPC: 0.18282 (Simulation time: 0 hr 8 min 24 sec) 
Heartbeat CPU  1 instructions:   64000000 cycles:  117999827 heartbeat IPC: 0.14630 cumulative IPC: 0.15613 (Simulation time: 0 hr 8 min 27 sec) 
Heartbeat CPU  2 instructions:   86000003 cycles:  118829436 heartbeat IPC: 0.21386 cumulative IPC: 0.21851 (Simulation time: 0 hr 8 min 29 sec) 
Heartbeat CPU  0 instructions:   64000000 cycles:  120656719 heartbeat IPC: 0.14648 cumulative IPC: 0.15533 (Simulation time: 0 hr 8 min 32 sec) 
Heartbeat CPU  3 instructions:   75000000 cycles:  121514665 heartbeat IPC: 0.18298 cumulative IPC: 0.18283 (Simulation time: 0 hr 8 min 33 sec) 
Heartbeat CPU  2 instructions:   87000003 cycles:  123369780 heartbeat IPC: 0.22025 cumulative IPC: 0.21859 (Simulation time: 0 hr 8 min 36 sec) 
Heartbeat CPU  1 instructions:   65000002 cycles:  124696890 heartbeat IPC: 0.14932 cumulative IPC: 0.15565 (Simulation time: 0 hr 8 min 38 sec) 
Heartbeat CPU  3 instructions:   76000000 cycles:  126973105 heartbeat IPC: 0.18320 cumulative IPC: 0.18285 (Simulation time: 0 hr 8 min 42 sec) 
Heartbeat CPU  2 instructions:   88000000 cycles:  127669773 heartbeat IPC: 0.23256 cumulative IPC: 0.21921 (Simulation time: 0 hr 8 min 43 sec) 
Heartbeat CPU  0 instructions:   65000002 cycles:  127932876 heartbeat IPC: 0.13744 cumulative IPC: 0.15399 (Simulation time: 0 hr 8 min 44 sec) 
Heartbeat CPU  1 instructions:   66000003 cycles:  131418790 heartbeat IPC: 0.14877 cumulative IPC: 0.15519 (Simulation time: 0 hr 8 min 49 sec) 
Heartbeat CPU  2 instructions:   89000002 cycles:  132268391 heartbeat IPC: 0.21746 cumulative IPC: 0.21913 (Simulation time: 0 hr 8 min 51 sec) 
Heartbeat CPU  3 instructions:   77000000 cycles:  132449846 heartbeat IPC: 0.18259 cumulative IPC: 0.18283 (Simulation time: 0 hr 8 min 51 sec) 
Heartbeat CPU  0 instructions:   66000003 cycles:  134772907 heartbeat IPC: 0.14620 cumulative IPC: 0.15348 (Simulation time: 0 hr 8 min 55 sec) 
Heartbeat CPU  2 instructions:   90000003 cycles:  136848231 heartbeat IPC: 0.21835 cumulative IPC: 0.21910 (Simulation time: 0 hr 8 min 58 sec) 
Heartbeat CPU  3 instructions:   78000002 cycles:  137933248 heartbeat IPC: 0.18237 cumulative IPC: 0.18281 (Simulation time: 0 hr 9 min 0 sec) 
Heartbeat CPU  1 instructions:   67000000 cycles:  138173922 heartbeat IPC: 0.14804 cumulative IPC: 0.15474 (Simulation time: 0 hr 9 min 0 sec) 
Heartbeat CPU  0 instructions:   67000002 cycles:  141610496 heartbeat IPC: 0.14625 cumulative IPC: 0.15303 (Simulation time: 0 hr 9 min 6 sec) 
Heartbeat CPU  2 instructions:   91000001 cycles:  141624605 heartbeat IPC: 0.20936 cumulative IPC: 0.21868 (Simulation time: 0 hr 9 min 6 sec) 
Heartbeat CPU  3 instructions:   79000000 cycles:  143492301 heartbeat IPC: 0.17989 cumulative IPC: 0.18267 (Simulation time: 0 hr 9 min 9 sec) 
Heartbeat CPU  1 instructions:   68000000 cycles:  144896500 heartbeat IPC: 0.14875 cumulative IPC: 0.15439 (Simulation time: 0 hr 9 min 11 sec) 
Heartbeat CPU  2 instructions:   92000000 cycles:  146313485 heartbeat IPC: 0.21327 cumulative IPC: 0.21846 (Simulation time: 0 hr 9 min 14 sec) 
Heartbeat CPU  0 instructions:   68000000 cycles:  146520865 heartbeat IPC: 0.20365 cumulative IPC: 0.15518 (Simulation time: 0 hr 9 min 14 sec) 
Heartbeat CPU  3 instructions:   80000000 cycles:  149056396 heartbeat IPC: 0.17972 cumulative IPC: 0.18253 (Simulation time: 0 hr 9 min 19 sec) 
Heartbeat CPU  0 instructions:   69000000 cycles:  150865153 heartbeat IPC: 0.23019 cumulative IPC: 0.15788 (Simulation time: 0 hr 9 min 22 sec) 
Heartbeat CPU  2 instructions:   93000002 cycles:  150904847 heartbeat IPC: 0.21780 cumulative IPC: 0.21843 (Simulation time: 0 hr 9 min 22 sec) 
Heartbeat CPU  1 instructions:   69000000 cycles:  152083321 heartbeat IPC: 0.13914 cumulative IPC: 0.15349 (Simulation time: 0 hr 9 min 24 sec) 
Heartbeat CPU  3 instructions:   81000001 cycles:  154600886 heartbeat IPC: 0.18036 cumulative IPC: 0.18243 (Simulation time: 0 hr 9 min 28 sec) 
Heartbeat CPU  2 instructions:   94000000 cycles:  155466403 heartbeat IPC: 0.21922 cumulative IPC: 0.21846 (Simulation time: 0 hr 9 min 29 sec) 
Heartbeat CPU  0 instructions:   70000003 cycles:  156883074 heartbeat IPC: 0.16617 cumulative IPC: 0.15828 (Simulation time: 0 hr 9 min 32 sec) 
Heartbeat CPU  1 instructions:   70000001 cycles:  158812095 heartbeat IPC: 0.14862 cumulative IPC: 0.15323 (Simulation time: 0 hr 9 min 35 sec) 
Heartbeat CPU  2 instructions:   95000003 cycles:  160145305 heartbeat IPC: 0.21373 cumulative IPC: 0.21829 (Simulation time: 0 hr 9 min 37 sec) 
Heartbeat CPU  3 instructions:   82000002 cycles:  160147915 heartbeat IPC: 0.18028 cumulative IPC: 0.18234 (Simulation time: 0 hr 9 min 37 sec) 
Heartbeat CPU  0 instructions:   71000002 cycles:  163721905 heartbeat IPC: 0.14622 cumulative IPC: 0.15766 (Simulation time: 0 hr 9 min 43 sec) 
Heartbeat CPU  2 instructions:   96000000 cycles:  164596063 heartbeat IPC: 0.22468 cumulative IPC: 0.21850 (Simulation time: 0 hr 9 min 44 sec) 
Heartbeat CPU  1 instructions:   71000002 cycles:  165582057 heartbeat IPC: 0.14771 cumulative IPC: 0.15295 (Simulation time: 0 hr 9 min 46 sec) 
Heartbeat CPU  3 instructions:   83000001 cycles:  165686580 heartbeat IPC: 0.18055 cumulative IPC: 0.18227 (Simulation time: 0 hr 9 min 46 sec) 
Heartbeat CPU  2 instructions:   97000000 cycles:  169037699 heartbeat IPC: 0.22514 cumulative IPC: 0.21872 (Simulation time: 0 hr 9 min 51 sec) 
Heartbeat CPU  0 instructions:   72000000 cycles:  170592874 heartbeat IPC: 0.14554 cumulative IPC: 0.15707 (Simulation time: 0 hr 9 min 54 sec) 
Heartbeat CPU  1 instructions:   72000000 cycles:  170768508 heartbeat IPC: 0.19281 cumulative IPC: 0.15443 (Simulation time: 0 hr 9 min 55 sec) 
Heartbeat CPU  3 instructions:   84000000 cycles:  171242326 heartbeat IPC: 0.17999 cumulative IPC: 0.18218 (Simulation time: 0 hr 9 min 55 sec) 
Heartbeat CPU  2 instructions:   98000000 cycles:  173577648 heartbeat IPC: 0.22027 cumulative IPC: 0.21877 (Simulation time: 0 hr 10 min 0 sec) 
Heartbeat CPU  1 instructions:   73000001 cycles:  175060646 heartbeat IPC: 0.23298 cumulative IPC: 0.15676 (Simulation time: 0 hr 10 min 2 sec) 
Heartbeat CPU  3 instructions:   85000001 cycles:  176814181 heartbeat IPC: 0.17947 cumulative IPC: 0.18207 (Simulation time: 0 hr 10 min 5 sec) 
Heartbeat CPU  0 instructions:   73000001 cycles:  177471480 heartbeat IPC: 0.14538 cumulative IPC: 0.15652 (Simulation time: 0 hr 10 min 6 sec) 
Heartbeat CPU  2 instructions:   99000002 cycles:  178092262 heartbeat IPC: 0.22150 cumulative IPC: 0.21885 (Simulation time: 0 hr 10 min 7 sec) 
Heartbeat CPU  1 instructions:   74000003 cycles:  180771957 heartbeat IPC: 0.17509 cumulative IPC: 0.15746 (Simulation time: 0 hr 10 min 12 sec) 
Heartbeat CPU  3 instructions:   86000003 cycles:  182383037 heartbeat IPC: 0.17957 cumulative IPC: 0.18198 (Simulation time: 0 hr 10 min 14 sec) 
*** Reached end of trace for Core: 2 Repeating trace: /pref/Pythia/CLOUD9/traces/cloud9_phase4_core2.trace.xz
Heartbeat CPU  2 instructions:  100000000 cycles:  182511102 heartbeat IPC: 0.22630 cumulative IPC: 0.21907 (Simulation time: 0 hr 10 min 15 sec) 
Heartbeat CPU  0 instructions:   74000003 cycles:  184314811 heartbeat IPC: 0.14613 cumulative IPC: 0.15606 (Simulation time: 0 hr 10 min 17 sec) 
Heartbeat CPU  2 instructions:  101000001 cycles:  187062694 heartbeat IPC: 0.21970 cumulative IPC: 0.21908 (Simulation time: 0 hr 10 min 22 sec) 
Heartbeat CPU  1 instructions:   75000001 cycles:  187453757 heartbeat IPC: 0.14966 cumulative IPC: 0.15713 (Simulation time: 0 hr 10 min 23 sec) 
Heartbeat CPU  3 instructions:   87000002 cycles:  187947152 heartbeat IPC: 0.17972 cumulative IPC: 0.18190 (Simulation time: 0 hr 10 min 23 sec) 
Heartbeat CPU  0 instructions:   75000002 cycles:  191271462 heartbeat IPC: 0.14375 cumulative IPC: 0.15552 (Simulation time: 0 hr 10 min 29 sec) 
Heartbeat CPU  2 instructions:  102000000 cycles:  191709779 heartbeat IPC: 0.21519 cumulative IPC: 0.21897 (Simulation time: 0 hr 10 min 29 sec) 
Heartbeat CPU  3 instructions:   88000000 cycles:  193516237 heartbeat IPC: 0.17956 cumulative IPC: 0.18182 (Simulation time: 0 hr 10 min 32 sec) 
Heartbeat CPU  1 instructions:   76000000 cycles:  194190480 heartbeat IPC: 0.14844 cumulative IPC: 0.15677 (Simulation time: 0 hr 10 min 33 sec) 
Heartbeat CPU  2 instructions:  103000003 cycles:  196264684 heartbeat IPC: 0.21954 cumulative IPC: 0.21899 (Simulation time: 0 hr 10 min 37 sec) 
Heartbeat CPU  0 instructions:   76000000 cycles:  198128195 heartbeat IPC: 0.14584 cumulative IPC: 0.15513 (Simulation time: 0 hr 10 min 40 sec) 
Heartbeat CPU  3 instructions:   89000002 cycles:  199075087 heartbeat IPC: 0.17989 cumulative IPC: 0.18176 (Simulation time: 0 hr 10 min 41 sec) 
Heartbeat CPU  1 instructions:   77000002 cycles:  200895030 heartbeat IPC: 0.14915 cumulative IPC: 0.15647 (Simulation time: 0 hr 10 min 44 sec) 
Heartbeat CPU  2 instructions:  104000000 cycles:  200932792 heartbeat IPC: 0.21422 cumulative IPC: 0.21886 (Simulation time: 0 hr 10 min 44 sec) 
Heartbeat CPU  3 instructions:   90000003 cycles:  204639511 heartbeat IPC: 0.17971 cumulative IPC: 0.18169 (Simulation time: 0 hr 10 min 50 sec) 
Heartbeat CPU  0 instructions:   77000003 cycles:  205004267 heartbeat IPC: 0.14543 cumulative IPC: 0.15475 (Simulation time: 0 hr 10 min 51 sec) 
Heartbeat CPU  2 instructions:  105000003 cycles:  205486750 heartbeat IPC: 0.21959 cumulative IPC: 0.21888 (Simulation time: 0 hr 10 min 52 sec) 
Heartbeat CPU  1 instructions:   78000000 cycles:  207627307 heartbeat IPC: 0.14854 cumulative IPC: 0.15617 (Simulation time: 0 hr 10 min 55 sec) 
Heartbeat CPU  2 instructions:  106000002 cycles:  210211125 heartbeat IPC: 0.21167 cumulative IPC: 0.21869 (Simulation time: 0 hr 10 min 59 sec) 
Heartbeat CPU  3 instructions:   91000002 cycles:  210211747 heartbeat IPC: 0.17946 cumulative IPC: 0.18162 (Simulation time: 0 hr 10 min 59 sec) 
Heartbeat CPU  0 instructions:   78000003 cycles:  211883016 heartbeat IPC: 0.14538 cumulative IPC: 0.15439 (Simulation time: 0 hr 11 min 2 sec) 
Heartbeat CPU  1 instructions:   79000003 cycles:  214425566 heartbeat IPC: 0.14710 cumulative IPC: 0.15583 (Simulation time: 0 hr 11 min 6 sec) 
Heartbeat CPU  2 instructions:  107000002 cycles:  214845741 heartbeat IPC: 0.21577 cumulative IPC: 0.21861 (Simulation time: 0 hr 11 min 7 sec) 
Heartbeat CPU  3 instructions:   92000000 cycles:  215756165 heartbeat IPC: 0.18036 cumulative IPC: 0.18159 (Simulation time: 0 hr 11 min 8 sec) 
Heartbeat CPU  0 instructions:   79000001 cycles:  219217735 heartbeat IPC: 0.13634 cumulative IPC: 0.15369 (Simulation time: 0 hr 11 min 14 sec) 
Heartbeat CPU  2 instructions:  108000000 cycles:  219667607 heartbeat IPC: 0.20739 cumulative IPC: 0.21833 (Simulation time: 0 hr 11 min 14 sec) 
Heartbeat CPU  1 instructions:   80000000 cycles:  221107958 heartbeat IPC: 0.14965 cumulative IPC: 0.15561 (Simulation time: 0 hr 11 min 17 sec) 
Heartbeat CPU  3 instructions:   93000002 cycles:  221297764 heartbeat IPC: 0.18045 cumulative IPC: 0.18155 (Simulation time: 0 hr 11 min 17 sec) 
Heartbeat CPU  2 instructions:  109000003 cycles:  224509738 heartbeat IPC: 0.20652 cumulative IPC: 0.21803 (Simulation time: 0 hr 11 min 22 sec) 
Heartbeat CPU  0 instructions:   80000000 cycles:  226059417 heartbeat IPC: 0.14616 cumulative IPC: 0.15342 (Simulation time: 0 hr 11 min 25 sec) 
Heartbeat CPU  3 instructions:   94000002 cycles:  226873514 heartbeat IPC: 0.17935 cumulative IPC: 0.18149 (Simulation time: 0 hr 11 min 26 sec) 
Heartbeat CPU  1 instructions:   81000003 cycles:  227820694 heartbeat IPC: 0.14897 cumulative IPC: 0.15539 (Simulation time: 0 hr 11 min 27 sec) 
Heartbeat CPU  2 instructions:  110000000 cycles:  229378628 heartbeat IPC: 0.20538 cumulative IPC: 0.21772 (Simulation time: 0 hr 11 min 30 sec) 
Heartbeat CPU  3 instructions:   95000003 cycles:  232424451 heartbeat IPC: 0.18015 cumulative IPC: 0.18145 (Simulation time: 0 hr 11 min 35 sec) 
Heartbeat CPU  0 instructions:   81000001 cycles:  232921388 heartbeat IPC: 0.14573 cumulative IPC: 0.15316 (Simulation time: 0 hr 11 min 36 sec) 
Heartbeat CPU  2 instructions:  111000002 cycles:  234141225 heartbeat IPC: 0.20997 cumulative IPC: 0.21754 (Simulation time: 0 hr 11 min 38 sec) 
Heartbeat CPU  1 instructions:   82000000 cycles:  234556767 heartbeat IPC: 0.14845 cumulative IPC: 0.15516 (Simulation time: 0 hr 11 min 38 sec) 
Heartbeat CPU  3 instructions:   96000000 cycles:  237946769 heartbeat IPC: 0.18108 cumulative IPC: 0.18144 (Simulation time: 0 hr 11 min 44 sec) 
Heartbeat CPU  2 instructions:  112000000 cycles:  239053611 heartbeat IPC: 0.20357 cumulative IPC: 0.21721 (Simulation time: 0 hr 11 min 45 sec) 
Heartbeat CPU  0 instructions:   82000000 cycles:  239736054 heartbeat IPC: 0.14674 cumulative IPC: 0.15295 (Simulation time: 0 hr 11 min 47 sec) 
Heartbeat CPU  1 instructions:   83000000 cycles:  241471061 heartbeat IPC: 0.14463 cumulative IPC: 0.15481 (Simulation time: 0 hr 11 min 50 sec) 
Heartbeat CPU  3 instructions:   97000003 cycles:  243482999 heartbeat IPC: 0.18063 cumulative IPC: 0.18142 (Simulation time: 0 hr 11 min 53 sec) 
Heartbeat CPU  2 instructions:  113000002 cycles:  243625525 heartbeat IPC: 0.21873 cumulative IPC: 0.21724 (Simulation time: 0 hr 11 min 53 sec) 
Heartbeat CPU  0 instructions:   83000002 cycles:  243889755 heartbeat IPC: 0.24075 cumulative IPC: 0.15466 (Simulation time: 0 hr 11 min 54 sec) 
Heartbeat CPU  2 instructions:  114000002 cycles:  248110596 heartbeat IPC: 0.22296 cumulative IPC: 0.21736 (Simulation time: 0 hr 12 min 1 sec) 
Heartbeat CPU  0 instructions:   84000000 cycles:  248382863 heartbeat IPC: 0.22256 cumulative IPC: 0.15606 (Simulation time: 0 hr 12 min 2 sec) 
Heartbeat CPU  1 instructions:   84000000 cycles:  248494150 heartbeat IPC: 0.14239 cumulative IPC: 0.15441 (Simulation time: 0 hr 12 min 2 sec) 
Heartbeat CPU  3 instructions:   98000000 cycles:  248992776 heartbeat IPC: 0.18150 cumulative IPC: 0.18142 (Simulation time: 0 hr 12 min 3 sec) 
Heartbeat CPU  2 instructions:  115000003 cycles:  252606189 heartbeat IPC: 0.22244 cumulative IPC: 0.21747 (Simulation time: 0 hr 12 min 9 sec) 
Heartbeat CPU  3 instructions:   99000002 cycles:  254545738 heartbeat IPC: 0.18008 cumulative IPC: 0.18139 (Simulation time: 0 hr 12 min 12 sec) 
Heartbeat CPU  0 instructions:   85000000 cycles:  254886696 heartbeat IPC: 0.15376 cumulative IPC: 0.15600 (Simulation time: 0 hr 12 min 13 sec) 
Heartbeat CPU  1 instructions:   85000000 cycles:  255256489 heartbeat IPC: 0.14788 cumulative IPC: 0.15422 (Simulation time: 0 hr 12 min 13 sec) 
Heartbeat CPU  2 instructions:  116000000 cycles:  257137428 heartbeat IPC: 0.22069 cumulative IPC: 0.21753 (Simulation time: 0 hr 12 min 16 sec) 
*** Reached end of trace for Core: 3 Repeating trace: /pref/Pythia/CLOUD9/traces/cloud9_phase4_core3.trace.xz
Heartbeat CPU  3 instructions:  100000000 cycles:  260085248 heartbeat IPC: 0.18052 cumulative IPC: 0.18137 (Simulation time: 0 hr 12 min 21 sec) 
Heartbeat CPU  2 instructions:  117000002 cycles:  261590961 heartbeat IPC: 0.22454 cumulative IPC: 0.21766 (Simulation time: 0 hr 12 min 23 sec) 
Heartbeat CPU  0 instructions:   86000000 cycles:  261672228 heartbeat IPC: 0.14737 cumulative IPC: 0.15574 (Simulation time: 0 hr 12 min 23 sec) 
Heartbeat CPU  1 instructions:   86000003 cycles:  262014779 heartbeat IPC: 0.14797 cumulative IPC: 0.15403 (Simulation time: 0 hr 12 min 24 sec) 
Heartbeat CPU  3 instructions:  101000002 cycles:  265947763 heartbeat IPC: 0.17058 cumulative IPC: 0.18110 (Simulation time: 0 hr 12 min 31 sec) 
Heartbeat CPU  2 instructions:  118000003 cycles:  266144759 heartbeat IPC: 0.21960 cumulative IPC: 0.21770 (Simulation time: 0 hr 12 min 31 sec) 
Heartbeat CPU  1 instructions:   87000002 cycles:  266660224 heartbeat IPC: 0.21526 cumulative IPC: 0.15524 (Simulation time: 0 hr 12 min 32 sec) 
Heartbeat CPU  0 instructions:   87000001 cycles:  268543564 heartbeat IPC: 0.14553 cumulative IPC: 0.15545 (Simulation time: 0 hr 12 min 35 sec) 
Heartbeat CPU  2 instructions:  119000002 cycles:  270684950 heartbeat IPC: 0.22025 cumulative IPC: 0.21775 (Simulation time: 0 hr 12 min 39 sec) 
Heartbeat CPU  1 instructions:   88000000 cycles:  271074178 heartbeat IPC: 0.22655 cumulative IPC: 0.15655 (Simulation time: 0 hr 12 min 40 sec) 
Heartbeat CPU  3 instructions:  102000001 cycles:  271849371 heartbeat IPC: 0.16945 cumulative IPC: 0.18082 (Simulation time: 0 hr 12 min 41 sec) 
Heartbeat CPU  0 instructions:   88000000 cycles:  275410534 heartbeat IPC: 0.14562 cumulative IPC: 0.15517 (Simulation time: 0 hr 12 min 47 sec) 
Heartbeat CPU  2 instructions:  120000000 cycles:  275448926 heartbeat IPC: 0.20991 cumulative IPC: 0.21760 (Simulation time: 0 hr 12 min 47 sec) 
Heartbeat CPU  1 instructions:   89000003 cycles:  277278392 heartbeat IPC: 0.16118 cumulative IPC: 0.15666 (Simulation time: 0 hr 12 min 50 sec) 
Heartbeat CPU  3 instructions:  103000002 cycles:  277754677 heartbeat IPC: 0.16934 cumulative IPC: 0.18054 (Simulation time: 0 hr 12 min 51 sec) 
Heartbeat CPU  2 instructions:  121000000 cycles:  279931682 heartbeat IPC: 0.22308 cumulative IPC: 0.21770 (Simulation time: 0 hr 12 min 54 sec) 
Heartbeat CPU  0 instructions:   89000003 cycles:  282343534 heartbeat IPC: 0.14424 cumulative IPC: 0.15487 (Simulation time: 0 hr 12 min 58 sec) 
Heartbeat CPU  3 instructions:  104000000 cycles:  283642608 heartbeat IPC: 0.16984 cumulative IPC: 0.18029 (Simulation time: 0 hr 13 min 0 sec) 
Heartbeat CPU  1 instructions:   90000003 cycles:  284001024 heartbeat IPC: 0.14875 cumulative IPC: 0.15645 (Simulation time: 0 hr 13 min 0 sec) 
Heartbeat CPU  2 instructions:  122000003 cycles:  284679530 heartbeat IPC: 0.21062 cumulative IPC: 0.21756 (Simulation time: 0 hr 13 min 2 sec) 
Heartbeat CPU  0 instructions:   90000001 cycles:  289160908 heartbeat IPC: 0.14668 cumulative IPC: 0.15466 (Simulation time: 0 hr 13 min 9 sec) 
Heartbeat CPU  2 instructions:  123000000 cycles:  289328668 heartbeat IPC: 0.21509 cumulative IPC: 0.21752 (Simulation time: 0 hr 13 min 9 sec) 
Heartbeat CPU  3 instructions:  105000003 cycles:  289552994 heartbeat IPC: 0.16919 cumulative IPC: 0.18004 (Simulation time: 0 hr 13 min 9 sec) 
Heartbeat CPU  1 instructions:   91000002 cycles:  290772330 heartbeat IPC: 0.14768 cumulative IPC: 0.15623 (Simulation time: 0 hr 13 min 11 sec) 
Heartbeat CPU  2 instructions:  124000000 cycles:  293705666 heartbeat IPC: 0.22847 cumulative IPC: 0.21770 (Simulation time: 0 hr 13 min 16 sec) 
Heartbeat CPU  3 instructions:  106000002 cycles:  295435552 heartbeat IPC: 0.16999 cumulative IPC: 0.17982 (Simulation time: 0 hr 13 min 19 sec) 
Heartbeat CPU  0 instructions:   91000000 cycles:  296023975 heartbeat IPC: 0.14571 cumulative IPC: 0.15443 (Simulation time: 0 hr 13 min 20 sec) 
Heartbeat CPU  1 instructions:   92000000 cycles:  297526151 heartbeat IPC: 0.14806 cumulative IPC: 0.15602 (Simulation time: 0 hr 13 min 22 sec) 
Heartbeat CPU  2 instructions:  125000001 cycles:  298132593 heartbeat IPC: 0.22589 cumulative IPC: 0.21784 (Simulation time: 0 hr 13 min 23 sec) 
Heartbeat CPU  3 instructions:  107000003 cycles:  301325037 heartbeat IPC: 0.16979 cumulative IPC: 0.17960 (Simulation time: 0 hr 13 min 28 sec) 
Heartbeat CPU  2 instructions:  126000002 cycles:  302808138 heartbeat IPC: 0.21388 cumulative IPC: 0.21777 (Simulation time: 0 hr 13 min 30 sec) 
Heartbeat CPU  0 instructions:   92000000 cycles:  302907820 heartbeat IPC: 0.14527 cumulative IPC: 0.15419 (Simulation time: 0 hr 13 min 31 sec) 
Heartbeat CPU  1 instructions:   93000002 cycles:  304242021 heartbeat IPC: 0.14890 cumulative IPC: 0.15585 (Simulation time: 0 hr 13 min 33 sec) 
Heartbeat CPU  3 instructions:  108000000 cycles:  307215413 heartbeat IPC: 0.16977 cumulative IPC: 0.17939 (Simulation time: 0 hr 13 min 37 sec) 
Heartbeat CPU  2 instructions:  127000003 cycles:  307389361 heartbeat IPC: 0.21828 cumulative IPC: 0.21778 (Simulation time: 0 hr 13 min 38 sec) 
Heartbeat CPU  0 instructions:   93000003 cycles:  309766520 heartbeat IPC: 0.14580 cumulative IPC: 0.15399 (Simulation time: 0 hr 13 min 42 sec) 
Heartbeat CPU  1 instructions:   94000001 cycles:  311162010 heartbeat IPC: 0.14451 cumulative IPC: 0.15557 (Simulation time: 0 hr 13 min 44 sec) 
Heartbeat CPU  2 instructions:  128000000 cycles:  311905589 heartbeat IPC: 0.22142 cumulative IPC: 0.21784 (Simulation time: 0 hr 13 min 45 sec) 
Heartbeat CPU  3 instructions:  109000002 cycles:  313120501 heartbeat IPC: 0.16935 cumulative IPC: 0.17918 (Simulation time: 0 hr 13 min 47 sec) 
Heartbeat CPU  2 instructions:  129000000 cycles:  316389712 heartbeat IPC: 0.22301 cumulative IPC: 0.21792 (Simulation time: 0 hr 13 min 52 sec) 
Heartbeat CPU  0 instructions:   94000001 cycles:  317074737 heartbeat IPC: 0.13683 cumulative IPC: 0.15355 (Simulation time: 0 hr 13 min 53 sec) 
Heartbeat CPU  1 instructions:   95000002 cycles:  317924296 heartbeat IPC: 0.14788 cumulative IPC: 0.15538 (Simulation time: 0 hr 13 min 54 sec) 
Heartbeat CPU  3 instructions:  110000003 cycles:  319026316 heartbeat IPC: 0.16932 cumulative IPC: 0.17898 (Simulation time: 0 hr 13 min 56 sec) 
Heartbeat CPU  2 instructions:  130000001 cycles:  321019504 heartbeat IPC: 0.21599 cumulative IPC: 0.21789 (Simulation time: 0 hr 13 min 59 sec) 
Heartbeat CPU  0 instructions:   95000000 cycles:  323954651 heartbeat IPC: 0.14535 cumulative IPC: 0.15336 (Simulation time: 0 hr 14 min 4 sec) 
Heartbeat CPU  1 instructions:   96000000 cycles:  324690482 heartbeat IPC: 0.14779 cumulative IPC: 0.15521 (Simulation time: 0 hr 14 min 5 sec) 
Heartbeat CPU  3 instructions:  111000000 cycles:  324919715 heartbeat IPC: 0.16968 cumulative IPC: 0.17879 (Simulation time: 0 hr 14 min 6 sec) 
Heartbeat CPU  2 instructions:  131000000 cycles:  325505599 heartbeat IPC: 0.22291 cumulative IPC: 0.21796 (Simulation time: 0 hr 14 min 7 sec) 
Heartbeat CPU  2 instructions:  132000000 cycles:  329912568 heartbeat IPC: 0.22691 cumulative IPC: 0.21810 (Simulation time: 0 hr 14 min 14 sec) 
Heartbeat CPU  3 instructions:  112000000 cycles:  330810528 heartbeat IPC: 0.16976 cumulative IPC: 0.17861 (Simulation time: 0 hr 14 min 15 sec) 
Heartbeat CPU  0 instructions:   96000000 cycles:  330837009 heartbeat IPC: 0.14530 cumulative IPC: 0.15317 (Simulation time: 0 hr 14 min 15 sec) 
Heartbeat CPU  1 instructions:   97000000 cycles:  331481360 heartbeat IPC: 0.14726 cumulative IPC: 0.15503 (Simulation time: 0 hr 14 min 16 sec) 
Heartbeat CPU  2 instructions:  133000001 cycles:  334500819 heartbeat IPC: 0.21795 cumulative IPC: 0.21809 (Simulation time: 0 hr 14 min 21 sec) 
Heartbeat CPU  3 instructions:  113000000 cycles:  336704967 heartbeat IPC: 0.16965 cumulative IPC: 0.17844 (Simulation time: 0 hr 14 min 25 sec) 
Heartbeat CPU  0 instructions:   97000003 cycles:  336908348 heartbeat IPC: 0.16471 cumulative IPC: 0.15340 (Simulation time: 0 hr 14 min 25 sec) 
Heartbeat CPU  1 instructions:   98000000 cycles:  338713543 heartbeat IPC: 0.13827 cumulative IPC: 0.15464 (Simulation time: 0 hr 14 min 28 sec) 
Heartbeat CPU  2 instructions:  134000000 cycles:  339197158 heartbeat IPC: 0.21293 cumulative IPC: 0.21801 (Simulation time: 0 hr 14 min 29 sec) 
Heartbeat CPU  0 instructions:   98000000 cycles:  341036219 heartbeat IPC: 0.24225 cumulative IPC: 0.15458 (Simulation time: 0 hr 14 min 32 sec) 
Heartbeat CPU  3 instructions:  114000001 cycles:  342603372 heartbeat IPC: 0.16954 cumulative IPC: 0.17827 (Simulation time: 0 hr 14 min 35 sec) 
Heartbeat CPU  2 instructions:  135000001 cycles:  343703912 heartbeat IPC: 0.22189 cumulative IPC: 0.21807 (Simulation time: 0 hr 14 min 37 sec) 
Heartbeat CPU  1 instructions:   99000000 cycles:  345458526 heartbeat IPC: 0.14826 cumulative IPC: 0.15450 (Simulation time: 0 hr 14 min 40 sec) 
Heartbeat CPU  0 instructions:   99000001 cycles:  346108247 heartbeat IPC: 0.19716 cumulative IPC: 0.15527 (Simulation time: 0 hr 14 min 41 sec) 
Heartbeat CPU  2 instructions:  136000000 cycles:  348456312 heartbeat IPC: 0.21042 cumulative IPC: 0.21796 (Simulation time: 0 hr 14 min 44 sec) 
Heartbeat CPU  3 instructions:  115000003 cycles:  348500121 heartbeat IPC: 0.16959 cumulative IPC: 0.17811 (Simulation time: 0 hr 14 min 45 sec) 
*** Reached end of trace for Core: 1 Repeating trace: /pref/Pythia/CLOUD9/traces/cloud9_phase4_core1.trace.xz
Heartbeat CPU  1 instructions:  100000000 cycles:  352248634 heartbeat IPC: 0.14727 cumulative IPC: 0.15435 (Simulation time: 0 hr 14 min 51 sec) 
*** Reached end of trace for Core: 0 Repeating trace: /pref/Pythia/CLOUD9/traces/cloud9_phase4_core0.trace.xz
Heartbeat CPU  0 instructions:  100000000 cycles:  352866188 heartbeat IPC: 0.14797 cumulative IPC: 0.15511 (Simulation time: 0 hr 14 min 52 sec) 
Heartbeat CPU  2 instructions:  137000001 cycles:  352890774 heartbeat IPC: 0.22551 cumulative IPC: 0.21806 (Simulation time: 0 hr 14 min 52 sec) 
Heartbeat CPU  3 instructions:  116000000 cycles:  354433962 heartbeat IPC: 0.16852 cumulative IPC: 0.17794 (Simulation time: 0 hr 14 min 54 sec) 
Heartbeat CPU  2 instructions:  138000002 cycles:  357578018 heartbeat IPC: 0.21335 cumulative IPC: 0.21799 (Simulation time: 0 hr 14 min 59 sec) 
Heartbeat CPU  1 instructions:  101000001 cycles:  358960545 heartbeat IPC: 0.14899 cumulative IPC: 0.15424 (Simulation time: 0 hr 15 min 1 sec) 
Heartbeat CPU  0 instructions:  101000001 cycles:  359763675 heartbeat IPC: 0.14498 cumulative IPC: 0.15490 (Simulation time: 0 hr 15 min 3 sec) 
Heartbeat CPU  3 instructions:  117000000 cycles:  360356376 heartbeat IPC: 0.16885 cumulative IPC: 0.17777 (Simulation time: 0 hr 15 min 3 sec) 
Heartbeat CPU  2 instructions:  139000002 cycles:  362131178 heartbeat IPC: 0.21963 cumulative IPC: 0.21801 (Simulation time: 0 hr 15 min 6 sec) 
Heartbeat CPU  1 instructions:  102000002 cycles:  365727571 heartbeat IPC: 0.14778 cumulative IPC: 0.15411 (Simulation time: 0 hr 15 min 12 sec) 
Heartbeat CPU  3 instructions:  118000000 cycles:  366274276 heartbeat IPC: 0.16898 cumulative IPC: 0.17762 (Simulation time: 0 hr 15 min 13 sec) 
Heartbeat CPU  0 instructions:  102000002 cycles:  366565003 heartbeat IPC: 0.14703 cumulative IPC: 0.15474 (Simulation time: 0 hr 15 min 13 sec) 
Heartbeat CPU  2 instructions:  140000000 cycles:  366669585 heartbeat IPC: 0.22034 cumulative IPC: 0.21805 (Simulation time: 0 hr 15 min 13 sec) 
Heartbeat CPU  2 instructions:  141000000 cycles:  371284712 heartbeat IPC: 0.21668 cumulative IPC: 0.21803 (Simulation time: 0 hr 15 min 21 sec) 
Heartbeat CPU  3 instructions:  119000003 cycles:  372208961 heartbeat IPC: 0.16850 cumulative IPC: 0.17746 (Simulation time: 0 hr 15 min 22 sec) 
Heartbeat CPU  1 instructions:  103000003 cycles:  372501714 heartbeat IPC: 0.14762 cumulative IPC: 0.15398 (Simulation time: 0 hr 15 min 23 sec) 
Heartbeat CPU  0 instructions:  103000001 cycles:  373350887 heartbeat IPC: 0.14736 cumulative IPC: 0.15460 (Simulation time: 0 hr 15 min 24 sec) 
Heartbeat CPU  2 instructions:  142000002 cycles:  375846143 heartbeat IPC: 0.21923 cumulative IPC: 0.21804 (Simulation time: 0 hr 15 min 28 sec) 
Heartbeat CPU  3 instructions:  120000000 cycles:  378136766 heartbeat IPC: 0.16870 cumulative IPC: 0.17731 (Simulation time: 0 hr 15 min 32 sec) 
Heartbeat CPU  1 instructions:  104000000 cycles:  379271911 heartbeat IPC: 0.14771 cumulative IPC: 0.15386 (Simulation time: 0 hr 15 min 33 sec) 
Heartbeat CPU  0 instructions:  104000000 cycles:  380173857 heartbeat IPC: 0.14656 cumulative IPC: 0.15444 (Simulation time: 0 hr 15 min 35 sec) 
Heartbeat CPU  2 instructions:  143000000 cycles:  380298668 heartbeat IPC: 0.22459 cumulative IPC: 0.21813 (Simulation time: 0 hr 15 min 35 sec) 
Heartbeat CPU  3 instructions:  121000003 cycles:  384095477 heartbeat IPC: 0.16782 cumulative IPC: 0.17715 (Simulation time: 0 hr 15 min 41 sec) 
Heartbeat CPU  2 instructions:  144000000 cycles:  385021576 heartbeat IPC: 0.21173 cumulative IPC: 0.21804 (Simulation time: 0 hr 15 min 43 sec) 
Heartbeat CPU  1 instructions:  105000001 cycles:  386146783 heartbeat IPC: 0.14546 cumulative IPC: 0.15370 (Simulation time: 0 hr 15 min 44 sec) 
Heartbeat CPU  0 instructions:  105000002 cycles:  387005351 heartbeat IPC: 0.14638 cumulative IPC: 0.15429 (Simulation time: 0 hr 15 min 46 sec) 
Heartbeat CPU  2 instructions:  145000003 cycles:  389435414 heartbeat IPC: 0.22656 cumulative IPC: 0.21815 (Simulation time: 0 hr 15 min 50 sec) 
Heartbeat CPU  3 instructions:  122000000 cycles:  390024933 heartbeat IPC: 0.16865 cumulative IPC: 0.17701 (Simulation time: 0 hr 15 min 51 sec) 
Heartbeat CPU  1 instructions:  106000003 cycles:  392887938 heartbeat IPC: 0.14834 cumulative IPC: 0.15360 (Simulation time: 0 hr 15 min 55 sec) 
Heartbeat CPU  2 instructions:  146000000 cycles:  393896441 heartbeat IPC: 0.22416 cumulative IPC: 0.21822 (Simulation time: 0 hr 15 min 57 sec) 
Heartbeat CPU  0 instructions:  106000001 cycles:  394297147 heartbeat IPC: 0.13714 cumulative IPC: 0.15394 (Simulation time: 0 hr 15 min 57 sec) 
Heartbeat CPU  3 instructions:  123000000 cycles:  395927126 heartbeat IPC: 0.16943 cumulative IPC: 0.17689 (Simulation time: 0 hr 16 min 0 sec) 
Heartbeat CPU  2 instructions:  147000003 cycles:  398428171 heartbeat IPC: 0.22067 cumulative IPC: 0.21825 (Simulation time: 0 hr 16 min 4 sec) 
Heartbeat CPU  1 instructions:  107000001 cycles:  399675964 heartbeat IPC: 0.14732 cumulative IPC: 0.15348 (Simulation time: 0 hr 16 min 6 sec) 
Heartbeat CPU  0 instructions:  107000000 cycles:  401133121 heartbeat IPC: 0.14628 cumulative IPC: 0.15380 (Simulation time: 0 hr 16 min 8 sec) 
Heartbeat CPU  3 instructions:  124000000 cycles:  401870290 heartbeat IPC: 0.16826 cumulative IPC: 0.17675 (Simulation time: 0 hr 16 min 10 sec) 
Heartbeat CPU  2 instructions:  148000000 cycles:  402952048 heartbeat IPC: 0.22105 cumulative IPC: 0.21828 (Simulation time: 0 hr 16 min 11 sec) 
Heartbeat CPU  1 instructions:  108000000 cycles:  406490092 heartbeat IPC: 0.14675 cumulative IPC: 0.15336 (Simulation time: 0 hr 16 min 17 sec) 
Heartbeat CPU  2 instructions:  149000003 cycles:  407306057 heartbeat IPC: 0.22967 cumulative IPC: 0.21842 (Simulation time: 0 hr 16 min 18 sec) 
Heartbeat CPU  3 instructions:  125000001 cycles:  407831484 heartbeat IPC: 0.16775 cumulative IPC: 0.17661 (Simulation time: 0 hr 16 min 19 sec) 
Heartbeat CPU  0 instructions:  108000000 cycles:  407967895 heartbeat IPC: 0.14631 cumulative IPC: 0.15367 (Simulation time: 0 hr 16 min 19 sec) 
Heartbeat CPU  2 instructions:  150000001 cycles:  412014396 heartbeat IPC: 0.21239 cumulative IPC: 0.21834 (Simulation time: 0 hr 16 min 26 sec) 
Heartbeat CPU  1 instructions:  109000003 cycles:  413257837 heartbeat IPC: 0.14776 cumulative IPC: 0.15326 (Simulation time: 0 hr 16 min 28 sec) 
Heartbeat CPU  0 instructions:  109000000 cycles:  413333926 heartbeat IPC: 0.18636 cumulative IPC: 0.15412 (Simulation time: 0 hr 16 min 28 sec) 
Heartbeat CPU  3 instructions:  126000000 cycles:  413781138 heartbeat IPC: 0.16808 cumulative IPC: 0.17648 (Simulation time: 0 hr 16 min 29 sec) 
Heartbeat CPU  2 instructions:  151000003 cycles:  416507391 heartbeat IPC: 0.22257 cumulative IPC: 0.21839 (Simulation time: 0 hr 16 min 34 sec) 
Heartbeat CPU  0 instructions:  110000002 cycles:  417513628 heartbeat IPC: 0.23925 cumulative IPC: 0.15504 (Simulation time: 0 hr 16 min 36 sec) 
Heartbeat CPU  3 instructions:  127000000 cycles:  419756095 heartbeat IPC: 0.16737 cumulative IPC: 0.17634 (Simulation time: 0 hr 16 min 40 sec) 
Heartbeat CPU  1 instructions:  110000001 cycles:  420488874 heartbeat IPC: 0.13829 cumulative IPC: 0.15298 (Simulation time: 0 hr 16 min 41 sec) 
Heartbeat CPU  2 instructions:  152000000 cycles:  421226800 heartbeat IPC: 0.21189 cumulative IPC: 0.21831 (Simulation time: 0 hr 16 min 42 sec) 
Heartbeat CPU  0 instructions:  111000001 cycles:  423120456 heartbeat IPC: 0.17835 cumulative IPC: 0.15538 (Simulation time: 0 hr 16 min 45 sec) 
Heartbeat CPU  3 instructions:  128000000 cycles:  425590294 heartbeat IPC: 0.17140 cumulative IPC: 0.17626 (Simulation time: 0 hr 16 min 49 sec) 
Heartbeat CPU  2 instructions:  153000001 cycles:  425982564 heartbeat IPC: 0.21027 cumulative IPC: 0.21822 (Simulation time: 0 hr 16 min 50 sec) 
Heartbeat CPU  1 instructions:  111000001 cycles:  427276897 heartbeat IPC: 0.14732 cumulative IPC: 0.15289 (Simulation time: 0 hr 16 min 52 sec) 
Heartbeat CPU  0 instructions:  112000000 cycles:  429939019 heartbeat IPC: 0.14666 cumulative IPC: 0.15523 (Simulation time: 0 hr 16 min 56 sec) 
Heartbeat CPU  2 instructions:  154000003 cycles:  430448559 heartbeat IPC: 0.22391 cumulative IPC: 0.21828 (Simulation time: 0 hr 16 min 57 sec) 
Heartbeat CPU  3 instructions:  129000002 cycles:  431290704 heartbeat IPC: 0.17543 cumulative IPC: 0.17625 (Simulation time: 0 hr 16 min 58 sec) 
Heartbeat CPU  1 instructions:  112000000 cycles:  434109689 heartbeat IPC: 0.14635 cumulative IPC: 0.15277 (Simulation time: 0 hr 17 min 3 sec) 
Heartbeat CPU  2 instructions:  155000000 cycles:  434999133 heartbeat IPC: 0.21975 cumulative IPC: 0.21830 (Simulation time: 0 hr 17 min 4 sec) 
Heartbeat CPU  0 instructions:  113000002 cycles:  436816268 heartbeat IPC: 0.14541 cumulative IPC: 0.15506 (Simulation time: 0 hr 17 min 7 sec) 
Heartbeat CPU  3 instructions:  130000000 cycles:  436976787 heartbeat IPC: 0.17587 cumulative IPC: 0.17625 (Simulation time: 0 hr 17 min 8 sec) 
Heartbeat CPU  1 instructions:  113000002 cycles:  439316265 heartbeat IPC: 0.19207 cumulative IPC: 0.15327 (Simulation time: 0 hr 17 min 12 sec) 
Heartbeat CPU  2 instructions:  156000000 cycles:  439513960 heartbeat IPC: 0.22149 cumulative IPC: 0.21833 (Simulation time: 0 hr 17 min 12 sec) 
Heartbeat CPU  3 instructions:  131000000 cycles:  442658722 heartbeat IPC: 0.17600 cumulative IPC: 0.17624 (Simulation time: 0 hr 17 min 18 sec) 
Heartbeat CPU  1 instructions:  114000000 cycles:  443629867 heartbeat IPC: 0.23182 cumulative IPC: 0.15410 (Simulation time: 0 hr 17 min 20 sec) 
Heartbeat CPU  0 instructions:  114000001 cycles:  443695142 heartbeat IPC: 0.14537 cumulative IPC: 0.15490 (Simulation time: 0 hr 17 min 20 sec) 
Heartbeat CPU  2 instructions:  157000000 cycles:  444173378 heartbeat IPC: 0.21462 cumulative IPC: 0.21829 (Simulation time: 0 hr 17 min 21 sec) 
Heartbeat CPU  3 instructions:  132000000 cycles:  448337944 heartbeat IPC: 0.17608 cumulative IPC: 0.17624 (Simulation time: 0 hr 17 min 27 sec) 
Heartbeat CPU  2 instructions:  158000002 cycles:  448612376 heartbeat IPC: 0.22528 cumulative IPC: 0.21836 (Simulation time: 0 hr 17 min 28 sec) 
Heartbeat CPU  1 instructions:  115000002 cycles:  449442329 heartbeat IPC: 0.17204 cumulative IPC: 0.15434 (Simulation time: 0 hr 17 min 29 sec) 
Heartbeat CPU  0 instructions:  115000001 cycles:  450566061 heartbeat IPC: 0.14554 cumulative IPC: 0.15475 (Simulation time: 0 hr 17 min 31 sec) 
[...]
Core_0_L2C_prefetch_late 6210
Core_0_L2C_average_miss_latency 96.20081

Core_0_L2C_rq_access 1224015
Core_0_L2C_rq_forward 0
Core_0_L2C_rq_merged 0
Core_0_L2C_rq_to_cache 1224005
Core_0_L2C_rq_full 0

Core_0_L2C_wq_access 732294
Core_0_L2C_wq_forward 11
Core_0_L2C_wq_merged 0
Core_0_L2C_wq_to_cache 732294
Core_0_L2C_wq_full 0

Core_0_L2C_pq_access 1558110
Core_0_L2C_pq_forward 0
Core_0_L2C_pq_merged 0
Core_0_L2C_pq_to_cache 1558109
Core_0_L2C_pq_full 0

Core_0_L2C_acc_epochs 166041
Core_0_L2C_acc_level_0 7320
Core_0_L2C_acc_level_1 8870
Core_0_L2C_acc_level_2 15081
Core_0_L2C_acc_level_3 23063
Core_0_L2C_acc_level_4 27190
Core_0_L2C_acc_level_5 23668
Core_0_L2C_acc_level_6 18078
Core_0_L2C_acc_level_7 13327
Core_0_L2C_acc_level_8 9537
Core_0_L2C_acc_level_9 19907

Core_0_LLC_total_access 1777928
Core_0_LLC_total_hit 1625464
Core_0_LLC_total_miss 152464
Core_0_LLC_loads 622673
Core_0_LLC_load_hit 528901
Core_0_LLC_load_miss 93772
Core_0_LLC_RFOs 36349
Core_0_LLC_RFO_hit 33129
Core_0_LLC_RFO_miss 3220
Core_0_LLC_prefetches 550722
Core_0_LLC_prefetch_hit 502280
Core_0_LLC_prefetch_miss 48442
Core_0_LLC_writebacks 568184
Core_0_LLC_writeback_hit 561154
Core_0_LLC_writeback_miss 7030
Core_0_LLC_prefetch_requested 0
Core_0_LLC_prefetch_dropped 0
Core_0_LLC_prefetch_issued 0
Core_0_LLC_prefetch_filled 394850
Core_0_LLC_prefetch_useful 36140
Core_0_LLC_prefetch_useless 329159
Core_0_LLC_prefetch_late 0
Core_0_LLC_average_miss_latency 805.20059

Core_0_LLC_rq_access 1848009
Core_0_LLC_rq_forward 0
Core_0_LLC_rq_merged 0
Core_0_LLC_rq_to_cache 1848006
Core_0_LLC_rq_full 0

Core_0_LLC_wq_access 1535525
Core_0_LLC_wq_forward 6
Core_0_LLC_wq_merged 0
Core_0_LLC_wq_to_cache 1535525
Core_0_LLC_wq_full 0

Core_0_LLC_pq_access 1953746
Core_0_LLC_pq_forward 0
Core_0_LLC_pq_merged 0
Core_0_LLC_pq_to_cache 1953743
Core_0_LLC_pq_full 0

Core_0_LLC_acc_epochs 980064
Core_0_LLC_acc_level_0 949241
Core_0_LLC_acc_level_1 12713
Core_0_LLC_acc_level_2 9135
Core_0_LLC_acc_level_3 1848
Core_0_LLC_acc_level_4 763
Core_0_LLC_acc_level_5 4998
Core_0_LLC_acc_level_6 402
Core_0_LLC_acc_level_7 219
Core_0_LLC_acc_level_8 108
Core_0_LLC_acc_level_9 637

Core_0_major_page_fault 0
Core_0_minor_page_fault 1903

Core_1_instructions 150000001
Core_1_cycles 971699449
Core_1_IPC 0.15437

Core_1_branch_prediction_accuracy 99.42370
Core_1_branch_MPKI 1.32038
Core_1_average_ROB_occupancy_at_mispredict 135.95033

Core_1_L1D_total_access 24630402
Core_1_L1D_total_hit 23424774
Core_1_L1D_total_miss 1205628
Core_1_L1D_loads 14462385
Core_1_L1D_load_hit 13312184
Core_1_L1D_load_miss 1150201
Core_1_L1D_RFOs 10168017
Core_1_L1D_RFO_hit 10112590
Core_1_L1D_RFO_miss 55427
Core_1_L1D_prefetches 0
Core_1_L1D_prefetch_hit 0
Core_1_L1D_prefetch_miss 0
Core_1_L1D_writebacks 0
Core_1_L1D_writeback_hit 0
Core_1_L1D_writeback_miss 0
Core_1_L1D_prefetch_requested 0
Core_1_L1D_prefetch_dropped 0
Core_1_L1D_prefetch_issued 0
Core_1_L1D_prefetch_filled 0
Core_1_L1D_prefetch_useful 0
Core_1_L1D_prefetch_useless 0
Core_1_L1D_prefetch_late 0
Core_1_L1D_average_miss_latency 117.82009

Core_1_L1D_rq_access 21589862
Core_1_L1D_rq_forward 0
Core_1_L1D_rq_merged 7055615
Core_1_L1D_rq_to_cache 14534236
Core_1_L1D_rq_full 0

Core_1_L1D_wq_access 11292755
Core_1_L1D_wq_forward 11
Core_1_L1D_wq_merged 863949
Core_1_L1D_wq_to_cache 10428806
Core_1_L1D_wq_full 0

Core_1_L1D_pq_access 0
Core_1_L1D_pq_forward 0
Core_1_L1D_pq_merged 0
Core_1_L1D_pq_to_cache 0
Core_1_L1D_pq_full 0

Core_1_L1D_acc_epochs 167357
Core_1_L1D_acc_level_0 167357
Core_1_L1D_acc_level_1 0
Core_1_L1D_acc_level_2 0
Core_1_L1D_acc_level_3 0
Core_1_L1D_acc_level_4 0
Core_1_L1D_acc_level_5 0
Core_1_L1D_acc_level_6 0
Core_1_L1D_acc_level_7 0
Core_1_L1D_acc_level_8 0
Core_1_L1D_acc_level_9 0

Core_1_L1I_total_access 41175462
Core_1_L1I_total_hit 41164268
Core_1_L1I_total_miss 11194
Core_1_L1I_loads 41175462
Core_1_L1I_load_hit 41164268
Core_1_L1I_load_miss 11194
Core_1_L1I_RFOs 0
Core_1_L1I_RFO_hit 0
Core_1_L1I_RFO_miss 0
Core_1_L1I_prefetches 0
Core_1_L1I_prefetch_hit 0
Core_1_L1I_prefetch_miss 0
Core_1_L1I_writebacks 0
Core_1_L1I_writeback_hit 0
Core_1_L1I_writeback_miss 0
Core_1_L1I_prefetch_requested 0
Core_1_L1I_prefetch_dropped 0
Core_1_L1I_prefetch_issued 0
Core_1_L1I_prefetch_filled 0
Core_1_L1I_prefetch_useful 0
Core_1_L1I_prefetch_useless 0
Core_1_L1I_prefetch_late 0
Core_1_L1I_average_miss_latency 136.71065

Core_1_L1I_rq_access 150199500
Core_1_L1I_rq_forward 0
Core_1_L1I_rq_merged 108959158
Core_1_L1I_rq_to_cache 41240342
Core_1_L1I_rq_full 0

Core_1_L1I_wq_access 0
Core_1_L1I_wq_forward 0
Core_1_L1I_wq_merged 0
Core_1_L1I_wq_to_cache 0
Core_1_L1I_wq_full 0

Core_1_L1I_pq_access 0
Core_1_L1I_pq_forward 0
Core_1_L1I_pq_merged 0
Core_1_L1I_pq_to_cache 0
Core_1_L1I_pq_full 0

Core_1_L1I_acc_epochs 167357
Core_1_L1I_acc_level_0 167357
Core_1_L1I_acc_level_1 0
Core_1_L1I_acc_level_2 0
Core_1_L1I_acc_level_3 0
Core_1_L1I_acc_level_4 0
Core_1_L1I_acc_level_5 0
Core_1_L1I_acc_level_6 0
Core_1_L1I_acc_level_7 0
Core_1_L1I_acc_level_8 0
Core_1_L1I_acc_level_9 0

Core_1_L2C_total_access 3086377
Core_1_L2C_total_hit 1938709
Core_1_L2C_total_miss 1147668
Core_1_L2C_loads 1161390
Core_1_L2C_load_hit 577418
Core_1_L2C_load_miss 583972
Core_1_L2C_RFOs 55425
Core_1_L2C_RFO_hit 17744
Core_1_L2C_RFO_miss 37681
Core_1_L2C_prefetches 1149881
Core_1_L2C_prefetch_hit 626941
Core_1_L2C_prefetch_miss 522940
Core_1_L2C_writebacks 719681
Core_1_L2C_writeback_hit 716606
Core_1_L2C_writeback_miss 3075
Core_1_L2C_prefetch_requested 1548443
Core_1_L2C_prefetch_dropped 0
Core_1_L2C_prefetch_issued 1548443
Core_1_L2C_prefetch_filled 695875
Core_1_L2C_prefetch_useful 401677
Core_1_L2C_prefetch_useless 293489
Core_1_L2C_prefetch_late 6356
Core_1_L2C_average_miss_latency 93.20740

Core_1_L2C_rq_access 1217935
Core_1_L2C_rq_forward 0
Core_1_L2C_rq_merged 0
Core_1_L2C_rq_to_cache 1217928
Core_1_L2C_rq_full 0

Core_1_L2C_wq_access 720276
Core_1_L2C_wq_forward 7
Core_1_L2C_wq_merged 0
Core_1_L2C_wq_to_cache 720276
Core_1_L2C_wq_full 0

Core_1_L2C_pq_access 1548443
Core_1_L2C_pq_forward 0
Core_1_L2C_pq_merged 0
Core_1_L2C_pq_to_cache 1548443
Core_1_L2C_pq_full 0

Core_1_L2C_acc_epochs 167357
Core_1_L2C_acc_level_0 5779
Core_1_L2C_acc_level_1 5703
Core_1_L2C_acc_level_2 11038
Core_1_L2C_acc_level_3 19103
Core_1_L2C_acc_level_4 23963
Core_1_L2C_acc_level_5 22786
Core_1_L2C_acc_level_6 19815
Core_1_L2C_acc_level_7 16317
Core_1_L2C_acc_level_8 12540
Core_1_L2C_acc_level_9 30313

Core_1_LLC_total_access 1699079
Core_1_LLC_total_hit 1566909
Core_1_LLC_total_miss 132170
Core_1_LLC_loads 578207
Core_1_LLC_load_hit 499535
Core_1_LLC_load_miss 78672
Core_1_LLC_RFOs 37652
Core_1_LLC_RFO_hit 34405
Core_1_LLC_RFO_miss 3247
Core_1_LLC_prefetches 528731
Core_1_LLC_prefetch_hit 483105
Core_1_LLC_prefetch_miss 45626
Core_1_LLC_writebacks 554489
Core_1_LLC_writeback_hit 549864
Core_1_LLC_writeback_miss 4625
Core_1_LLC_prefetch_requested 0
Core_1_LLC_prefetch_dropped 0
Core_1_LLC_prefetch_issued 0
Core_1_LLC_prefetch_filled 394850
Core_1_LLC_prefetch_useful 36140
Core_1_LLC_prefetch_useless 329159
Core_1_LLC_prefetch_late 0
Core_1_LLC_average_miss_latency 928.83485

Core_1_LLC_rq_access 1848009
Core_1_LLC_rq_forward 0
Core_1_LLC_rq_merged 0
Core_1_LLC_rq_to_cache 1848006
Core_1_LLC_rq_full 0

Core_1_LLC_wq_access 1535525
Core_1_LLC_wq_forward 6
Core_1_LLC_wq_merged 0
Core_1_LLC_wq_to_cache 1535525
Core_1_LLC_wq_full 0

Core_1_LLC_pq_access 1953746
Core_1_LLC_pq_forward 0
Core_1_LLC_pq_merged 0
Core_1_LLC_pq_to_cache 1953743
Core_1_LLC_pq_full 0

Core_1_LLC_acc_epochs 980064
Core_1_LLC_acc_level_0 949241
Core_1_LLC_acc_level_1 12713
Core_1_LLC_acc_level_2 9135
Core_1_LLC_acc_level_3 1848
Core_1_LLC_acc_level_4 763
Core_1_LLC_acc_level_5 4998
Core_1_LLC_acc_level_6 402
Core_1_LLC_acc_level_7 219
Core_1_LLC_acc_level_8 108
Core_1_LLC_acc_level_9 637

Core_1_major_page_fault 0
Core_1_minor_page_fault 1681

Core_2_instructions 150000001
Core_2_cycles 688031054
Core_2_IPC 0.21801

Core_2_branch_prediction_accuracy 99.03815
Core_2_branch_MPKI 1.88018
Core_2_average_ROB_occupancy_at_mispredict 188.01614

Core_2_L1D_total_access 23139085
Core_2_L1D_total_hit 22682167
Core_2_L1D_total_miss 456918
Core_2_L1D_loads 13194686
Core_2_L1D_load_hit 12903330
Core_2_L1D_load_miss 291356
Core_2_L1D_RFOs 9944399
Core_2_L1D_RFO_hit 9778837
Core_2_L1D_RFO_miss 165562
Core_2_L1D_prefetches 0
Core_2_L1D_prefetch_hit 0
Core_2_L1D_prefetch_miss 0
Core_2_L1D_writebacks 0
Core_2_L1D_writeback_hit 0
Core_2_L1D_writeback_miss 0
Core_2_L1D_prefetch_requested 0
Core_2_L1D_prefetch_dropped 0
Core_2_L1D_prefetch_issued 0
Core_2_L1D_prefetch_filled 0
Core_2_L1D_prefetch_useful 0
Core_2_L1D_prefetch_useless 0
Core_2_L1D_prefetch_late 0
Core_2_L1D_average_miss_latency 168.94417

Core_2_L1D_rq_access 28495808
Core_2_L1D_rq_forward 0
Core_2_L1D_rq_merged 9786245
Core_2_L1D_rq_to_cache 18708731
Core_2_L1D_rq_full 0

Core_2_L1D_wq_access 14755703
Core_2_L1D_wq_forward 832
Core_2_L1D_wq_merged 154897
Core_2_L1D_wq_to_cache 14600806
Core_2_L1D_wq_full 0

Core_2_L1D_pq_access 0
Core_2_L1D_pq_forward 0
Core_2_L1D_pq_merged 0
Core_2_L1D_pq_to_cache 0
Core_2_L1D_pq_full 0

Core_2_L1D_acc_epochs 206664
Core_2_L1D_acc_level_0 206664
Core_2_L1D_acc_level_1 0
Core_2_L1D_acc_level_2 0
Core_2_L1D_acc_level_3 0
Core_2_L1D_acc_level_4 0
Core_2_L1D_acc_level_5 0
Core_2_L1D_acc_level_6 0
Core_2_L1D_acc_level_7 0
Core_2_L1D_acc_level_8 0
Core_2_L1D_acc_level_9 0

Core_2_L1I_total_access 37131288
Core_2_L1I_total_hit 37121240
Core_2_L1I_total_miss 10048
Core_2_L1I_loads 37131288
Core_2_L1I_load_hit 37121240
Core_2_L1I_load_miss 10048
Core_2_L1I_RFOs 0
Core_2_L1I_RFO_hit 0
Core_2_L1I_RFO_miss 0
Core_2_L1I_prefetches 0
Core_2_L1I_prefetch_hit 0
Core_2_L1I_prefetch_miss 0
Core_2_L1I_writebacks 0
Core_2_L1I_writeback_hit 0
Core_2_L1I_writeback_miss 0
Core_2_L1I_prefetch_requested 0
Core_2_L1I_prefetch_dropped 0
Core_2_L1I_prefetch_issued 0
Core_2_L1I_prefetch_filled 0
Core_2_L1I_prefetch_useful 0
Core_2_L1I_prefetch_useless 0
Core_2_L1I_prefetch_late 0
Core_2_L1I_average_miss_latency 186.87699

Core_2_L1I_rq_access 212338846
Core_2_L1I_rq_forward 0
Core_2_L1I_rq_merged 159815778
Core_2_L1I_rq_to_cache 52523068
Core_2_L1I_rq_full 0

Core_2_L1I_wq_access 0
Core_2_L1I_wq_forward 0
Core_2_L1I_wq_merged 0
Core_2_L1I_wq_to_cache 0
Core_2_L1I_wq_full 0

Core_2_L1I_pq_access 0
Core_2_L1I_pq_forward 0
Core_2_L1I_pq_merged 0
Core_2_L1I_pq_to_cache 0
Core_2_L1I_pq_full 0

Core_2_L1I_acc_epochs 206664
Core_2_L1I_acc_level_0 206664
Core_2_L1I_acc_level_1 0
Core_2_L1I_acc_level_2 0
Core_2_L1I_acc_level_3 0
Core_2_L1I_acc_level_4 0
Core_2_L1I_acc_level_5 0
Core_2_L1I_acc_level_6 0
Core_2_L1I_acc_level_7 0
Core_2_L1I_acc_level_8 0
Core_2_L1I_acc_level_9 0

Core_2_L2C_total_access 1052444
Core_2_L2C_total_hit 724299
Core_2_L2C_total_miss 328145
Core_2_L2C_loads 301402
Core_2_L2C_load_hit 176152
Core_2_L2C_load_miss 125250
Core_2_L2C_RFOs 165559
Core_2_L2C_RFO_hit 91096
Core_2_L2C_RFO_miss 74463
Core_2_L2C_prefetches 295459
Core_2_L2C_prefetch_hit 167721
Core_2_L2C_prefetch_miss 127738
Core_2_L2C_writebacks 290024
Core_2_L2C_writeback_hit 289330
Core_2_L2C_writeback_miss 694
Core_2_L2C_prefetch_requested 562155
Core_2_L2C_prefetch_dropped 0
Core_2_L2C_prefetch_issued 562155
Core_2_L2C_prefetch_filled 244004
Core_2_L2C_prefetch_useful 74060
Core_2_L2C_prefetch_useless 168936
Core_2_L2C_prefetch_late 3269
Core_2_L2C_average_miss_latency 196.43736

Core_2_L2C_rq_access 665860
Core_2_L2C_rq_forward 0
Core_2_L2C_rq_merged 0
Core_2_L2C_rq_to_cache 665852
Core_2_L2C_rq_full 0

Core_2_L2C_wq_access 414307
Core_2_L2C_wq_forward 8
Core_2_L2C_wq_merged 0
Core_2_L2C_wq_to_cache 414307
Core_2_L2C_wq_full 0

Core_2_L2C_pq_access 562155
Core_2_L2C_pq_forward 0
Core_2_L2C_pq_merged 0
Core_2_L2C_pq_to_cache 562155
Core_2_L2C_pq_full 0

Core_2_L2C_acc_epochs 206664
Core_2_L2C_acc_level_0 133599
Core_2_L2C_acc_level_1 25996
Core_2_L2C_acc_level_2 18566
Core_2_L2C_acc_level_3 7821
Core_2_L2C_acc_level_4 2609
Core_2_L2C_acc_level_5 11801
Core_2_L2C_acc_level_6 2751
Core_2_L2C_acc_level_7 1274
Core_2_L2C_acc_level_8 540
Core_2_L2C_acc_level_9 1707

Core_2_LLC_total_access 482440
Core_2_LLC_total_hit 365986
Core_2_LLC_total_miss 116454
Core_2_LLC_loads 123993
Core_2_LLC_load_hit 72185
Core_2_LLC_load_miss 51808
Core_2_LLC_RFOs 73658
Core_2_LLC_RFO_hit 70008
Core_2_LLC_RFO_miss 3650
Core_2_LLC_prefetches 129800
Core_2_LLC_prefetch_hit 73623
Core_2_LLC_prefetch_miss 56177
Core_2_LLC_writebacks 154989
Core_2_LLC_writeback_hit 150170
Core_2_LLC_writeback_miss 4819
Core_2_LLC_prefetch_requested 0
Core_2_LLC_prefetch_dropped 0
Core_2_LLC_prefetch_issued 0
Core_2_LLC_prefetch_filled 394850
Core_2_LLC_prefetch_useful 36140
Core_2_LLC_prefetch_useless 329159
Core_2_LLC_prefetch_late 0
Core_2_LLC_average_miss_latency 1054.18536

Core_2_LLC_rq_access 1848009
Core_2_LLC_rq_forward 0
Core_2_LLC_rq_merged 0
Core_2_LLC_rq_to_cache 1848006
Core_2_LLC_rq_full 0

Core_2_LLC_wq_access 1535525
Core_2_LLC_wq_forward 6
Core_2_LLC_wq_merged 0
Core_2_LLC_wq_to_cache 1535525
Core_2_LLC_wq_full 0

Core_2_LLC_pq_access 1953746
Core_2_LLC_pq_forward 0
Core_2_LLC_pq_merged 0
Core_2_LLC_pq_to_cache 1953743
Core_2_LLC_pq_full 0

Core_2_LLC_acc_epochs 980064
Core_2_LLC_acc_level_0 949241
Core_2_LLC_acc_level_1 12713
Core_2_LLC_acc_level_2 9135
Core_2_LLC_acc_level_3 1848
Core_2_LLC_acc_level_4 763
Core_2_LLC_acc_level_5 4998
Core_2_LLC_acc_level_6 402
Core_2_LLC_acc_level_7 219
Core_2_LLC_acc_level_8 108
Core_2_LLC_acc_level_9 637

Core_2_major_page_fault 0
Core_2_minor_page_fault 3423

Core_3_instructions 150000002
Core_3_cycles 845444285
Core_3_IPC 0.17742

Core_3_branch_prediction_accuracy 99.76148
Core_3_branch_MPKI 0.49563
Core_3_average_ROB_occupancy_at_mispredict 239.37673

Core_3_L1D_total_access 22528173
Core_3_L1D_total_hit 22205857
Core_3_L1D_total_miss 322316
Core_3_L1D_loads 13528774
Core_3_L1D_load_hit 13210070
Core_3_L1D_load_miss 318704
Core_3_L1D_RFOs 8999399
Core_3_L1D_RFO_hit 8995787
Core_3_L1D_RFO_miss 3612
Core_3_L1D_prefetches 0
Core_3_L1D_prefetch_hit 0
Core_3_L1D_prefetch_miss 0
Core_3_L1D_writebacks 0
Core_3_L1D_writeback_hit 0
Core_3_L1D_writeback_miss 0
Core_3_L1D_prefetch_requested 0
Core_3_L1D_prefetch_dropped 0
Core_3_L1D_prefetch_issued 0
Core_3_L1D_prefetch_filled 0
Core_3_L1D_prefetch_useful 0
Core_3_L1D_prefetch_useless 0
Core_3_L1D_prefetch_late 0
Core_3_L1D_average_miss_latency 182.13489

Core_3_L1D_rq_access 22994759
Core_3_L1D_rq_forward 0
Core_3_L1D_rq_merged 7527072
Core_3_L1D_rq_to_cache 15467683
Core_3_L1D_rq_full 0

Core_3_L1D_wq_access 10491327
Core_3_L1D_wq_forward 4
Core_3_L1D_wq_merged 180860
Core_3_L1D_wq_to_cache 10310467
Core_3_L1D_wq_full 0

Core_3_L1D_pq_access 0
Core_3_L1D_pq_forward 0
Core_3_L1D_pq_merged 0
Core_3_L1D_pq_to_cache 0
Core_3_L1D_pq_full 0

Core_3_L1D_acc_epochs 189121
Core_3_L1D_acc_level_0 189121
Core_3_L1D_acc_level_1 0
Core_3_L1D_acc_level_2 0
Core_3_L1D_acc_level_3 0
Core_3_L1D_acc_level_4 0
Core_3_L1D_acc_level_5 0
Core_3_L1D_acc_level_6 0
Core_3_L1D_acc_level_7 0
Core_3_L1D_acc_level_8 0
Core_3_L1D_acc_level_9 0

Core_3_L1I_total_access 42448200
Core_3_L1I_total_hit 42448198
Core_3_L1I_total_miss 2
Core_3_L1I_loads 42448200
Core_3_L1I_load_hit 42448198
Core_3_L1I_load_miss 2
Core_3_L1I_RFOs 0
Core_3_L1I_RFO_hit 0
Core_3_L1I_RFO_miss 0
Core_3_L1I_prefetches 0
Core_3_L1I_prefetch_hit 0
Core_3_L1I_prefetch_miss 0
Core_3_L1I_writebacks 0
Core_3_L1I_writeback_hit 0
Core_3_L1I_writeback_miss 0
Core_3_L1I_prefetch_requested 0
Core_3_L1I_prefetch_dropped 0
Core_3_L1I_prefetch_issued 0
Core_3_L1I_prefetch_filled 0
Core_3_L1I_prefetch_useful 0
Core_3_L1I_prefetch_useless 0
Core_3_L1I_prefetch_late 0
Core_3_L1I_average_miss_latency 231.00000

Core_3_L1I_rq_access 171635296
Core_3_L1I_rq_forward 0
Core_3_L1I_rq_merged 123118315
Core_3_L1I_rq_to_cache 48516981
Core_3_L1I_rq_full 0

Core_3_L1I_wq_access 0
Core_3_L1I_wq_forward 0
Core_3_L1I_wq_merged 0
Core_3_L1I_wq_to_cache 0
Core_3_L1I_wq_full 0

Core_3_L1I_pq_access 0
Core_3_L1I_pq_forward 0
Core_3_L1I_pq_merged 0
Core_3_L1I_pq_to_cache 0
Core_3_L1I_pq_full 0

Core_3_L1I_acc_epochs 189121
Core_3_L1I_acc_level_0 189121
Core_3_L1I_acc_level_1 0
Core_3_L1I_acc_level_2 0
Core_3_L1I_acc_level_3 0
Core_3_L1I_acc_level_4 0
Core_3_L1I_acc_level_5 0
Core_3_L1I_acc_level_6 0
Core_3_L1I_acc_level_7 0
Core_3_L1I_acc_level_8 0
Core_3_L1I_acc_level_9 0

Core_3_L2C_total_access 803493
Core_3_L2C_total_hit 374990
Core_3_L2C_total_miss 428503
Core_3_L2C_loads 318706
Core_3_L2C_load_hit 69655
Core_3_L2C_load_miss 249051
Core_3_L2C_RFOs 3612
Core_3_L2C_RFO_hit 2632
Core_3_L2C_RFO_miss 980
Core_3_L2C_prefetches 317970
Core_3_L2C_prefetch_hit 139607
Core_3_L2C_prefetch_miss 178363
Core_3_L2C_writebacks 163205
Core_3_L2C_writeback_hit 163096
Core_3_L2C_writeback_miss 109
Core_3_L2C_prefetch_requested 482950
Core_3_L2C_prefetch_dropped 0
Core_3_L2C_prefetch_issued 482950
Core_3_L2C_prefetch_filled 273048
Core_3_L2C_prefetch_useful 80101
Core_3_L2C_prefetch_useless 191706
Core_3_L2C_prefetch_late 506
Core_3_L2C_average_miss_latency 162.95568

Core_3_L2C_rq_access 367286
Core_3_L2C_rq_forward 0
Core_3_L2C_rq_merged 0
Core_3_L2C_rq_to_cache 367286
Core_3_L2C_rq_full 0

Core_3_L2C_wq_access 193563
Core_3_L2C_wq_forward 0
Core_3_L2C_wq_merged 0
Core_3_L2C_wq_to_cache 193563
Core_3_L2C_wq_full 0

Core_3_L2C_pq_access 482950
Core_3_L2C_pq_forward 0
Core_3_L2C_pq_merged 0
Core_3_L2C_pq_to_cache 482950
Core_3_L2C_pq_full 0

Core_3_L2C_acc_epochs 189121
Core_3_L2C_acc_level_0 84180
Core_3_L2C_acc_level_1 35405
Core_3_L2C_acc_level_2 26488
Core_3_L2C_acc_level_3 11992
Core_3_L2C_acc_level_4 3832
Core_3_L2C_acc_level_5 16017
Core_3_L2C_acc_level_6 3787
Core_3_L2C_acc_level_7 2393
Core_3_L2C_acc_level_8 934
Core_3_L2C_acc_level_9 4093

Core_3_LLC_total_access 585251
Core_3_LLC_total_hit 356578
Core_3_LLC_total_miss 228673
Core_3_LLC_loads 248961
Core_3_LLC_load_hit 125194
Core_3_LLC_load_miss 123767
Core_3_LLC_RFOs 750
Core_3_LLC_RFO_hit 236
Core_3_LLC_RFO_miss 514
Core_3_LLC_prefetches 178683
Core_3_LLC_prefetch_hit 104419
Core_3_LLC_prefetch_miss 74264
Core_3_LLC_writebacks 156857
Core_3_LLC_writeback_hit 126729
Core_3_LLC_writeback_miss 30128
Core_3_LLC_prefetch_requested 0
Core_3_LLC_prefetch_dropped 0
Core_3_LLC_prefetch_issued 0
Core_3_LLC_prefetch_filled 394850
Core_3_LLC_prefetch_useful 36140
Core_3_LLC_prefetch_useless 329159
Core_3_LLC_prefetch_late 0
Core_3_LLC_average_miss_latency 536.85438

Core_3_LLC_rq_access 1848009
Core_3_LLC_rq_forward 0
Core_3_LLC_rq_merged 0
Core_3_LLC_rq_to_cache 1848006
Core_3_LLC_rq_full 0

Core_3_LLC_wq_access 1535525
Core_3_LLC_wq_forward 6
Core_3_LLC_wq_merged 0
Core_3_LLC_wq_to_cache 1535525
Core_3_LLC_wq_full 0

Core_3_LLC_pq_access 1953746
Core_3_LLC_pq_forward 0
Core_3_LLC_pq_merged 0
Core_3_LLC_pq_to_cache 1953743
Core_3_LLC_pq_full 0

Core_3_LLC_acc_epochs 980064
Core_3_LLC_acc_level_0 949241
Core_3_LLC_acc_level_1 12713
Core_3_LLC_acc_level_2 9135
Core_3_LLC_acc_level_3 1848
Core_3_LLC_acc_level_4 763
Core_3_LLC_acc_level_5 4998
Core_3_LLC_acc_level_6 402
Core_3_LLC_acc_level_7 219
Core_3_LLC_acc_level_8 108
Core_3_LLC_acc_level_9 637

Core_3_major_page_fault 0
Core_3_minor_page_fault 1728

[CoopPythia Stats]
 - Useful prefetches: 2178671
 - Final alpha: 0.10000
[CoopPythia Stats]
 - Useful prefetches: 2178671
 - Final alpha: 0.10000
[CoopPythia Stats]
 - Useful prefetches: 2178671
 - Final alpha: 0.10000
[CoopPythia Stats]
 - Useful prefetches: 2178671
 - Final alpha: 0.10000
Channel_0_RQ_row_buffer_hit 19440
Channel_0_RQ_row_buffer_miss 317249
Channel_0_WQ_row_buffer_hit 5892
Channel_0_WQ_row_buffer_miss 124522
Channel_0_WQ_full 0
Channel_0_dbus_congested 17623

Channel_1_RQ_row_buffer_hit 18814
Channel_1_RQ_row_buffer_miss 306234
Channel_1_WQ_row_buffer_hit 5484
Channel_1_WQ_row_buffer_miss 121729
Channel_1_WQ_full 0
Channel_1_dbus_congested 16911

avg_congested_cycle 8

DRAM_bw_pochs 3920253
DRAM_bw_level_0 3919463
DRAM_bw_level_1 675
DRAM_bw_level_2 106
DRAM_bw_level_3 9
