*************************************************
   ChampSim Multicore Out-of-Order Simulator
   Last compiled: Apr 16 2025 16:07:36
*************************************************
parsing config file: /pref/Pythia/config/coop_pythia.ini
unable to parse section: , name: bool coop_rl_enable, value: true
unable to parse section: , name: coop_enable_adaptive_alpha, value: true

trace_0 /pref/Pythia/CASSANDRA/traces/cassandra_phase4_core0.trace.xz
trace_1 /pref/Pythia/CASSANDRA/traces/cassandra_phase4_core1.trace.xz
trace_2 /pref/Pythia/CASSANDRA/traces/cassandra_phase4_core2.trace.xz
trace_3 /pref/Pythia/CASSANDRA/traces/cassandra_phase4_core3.trace.xz
Initialize SHIP state
warmup_instructions 50000000
simulation_instructions 150000000
champsim_seed 8758
measure_ipc 0
measure_ipc_epoch 1000
measure_dram_bw 1
measure_dram_bw_epoch 256
measure_cache_acc 1
measure_cache_acc_epoch 1024
l1d_perfect 0
l2c_perfect 0
llc_perfect 0
l1d_semi_perfect 0
l2c_semi_perfect 0
llc_semi_perfect 0
semi_perfect_cache_page_buffer_size 64

num_cpus 4
cpu_freq 4000
dram_io_freq 2400
page_size 4096
block_size 64
max_read_per_cycle 8
max_fill_per_cycle 1
dram_channels 2
log2_dram_channels 1
dram_ranks 1
dram_banks 8
dram_rows 65536
dram_columns 128
dram_row_size 8
dram_size 8192
dram_pages 2097152
======= Prefetcher Knob Settings =======
coop_enable_multicore: 0
coop_enable_bw_throttling: 1
coop_rl_enable: 0
coop_rl_ipc_threshold: 
coop_rl_alpha_high_ipc: 0.05
coop_rl_alpha_low_ipc: 0.01
coop_rl_bw_threshold: 10
========================================
fetch_width 6
decode_width 6
exec_width 4
lq_width 2
sq_width 2
retire_width 4
scheduler_size 128
branch_mispredict_penalty 20
rob_size 256
lq_size 72
sq_size 56
num_instr_destinations_sparc 4
num_instr_destinations 2
num_instr_sources 4

itlb_set 16
itlb_way 8
itlb_rq_size 16
itlb_wq_size 16
itlb_pq_size 0
itlb_mshr_size 8
itlb_latency 1

dtlb_set 16
dtlb_way 4
dtlb_rq_size 16
dtlb_wq_size 16
dtlb_pq_size 0
dtlb_mshr_size 8
dtlb_latency 1

stlb_set 128
stlb_way 12
stlb_rq_size 32
stlb_wq_size 32
stlb_pq_size 0
stlb_mshr_size 16
stlb_latency 8

l1i_size 32
l1i_set 64
l1i_way 8
l1i_rq_size 64
l1i_wq_size 64
l1i_pq_size 8
l1i_mshr_size 8
l1i_latency 1

l1d_size 32
l1d_set 64
l1d_way 8
l1d_rq_size 64
l1d_wq_size 64
l1d_pq_size 32
l1d_mshr_size 16
l1d_latency 4

l2c_size 256
l2c_set 512
l2c_way 8
l2c_rq_size 128
l2c_wq_size 32
l2c_pq_size 128
l2c_mshr_size 128
l2c_latency 10

llc_size 8192
llc_set 8192
llc_way 16
llc_rq_size 256
llc_wq_size 512
llc_pq_size 128
llc_mshr_size 256
llc_latency 20

dram_channel_width 8
dram_wq_size 64
dram_rq_size 64
tRP 15
tRCD 15
tCAS 12.5
dram_dbus_turn_around_time 30
dram_write_high_wm 56
dram_write_low_wm 48
min_dram_writes_per_switch 16
dram_mtps 2400
dram_dbus_return_time 13

[CoopPythia Config]
 - Bandwidth-aware throttling: Enabled
 - Multicore cooperation: Disabled
 - RL Enabled: No
 - Adaptive Alpha: Enabled
 - IPC Threshold: 4
 - BW Threshold: 10
 - Alpha High: 0.05
 - Alpha Low: 0.01

Heartbeat CPU  1 instructions:    1000001 cycles:     339342 heartbeat IPC: 2.94688 cumulative IPC: 2.94688 (Simulation time: 0 hr 0 min 5 sec) 
Heartbeat CPU  2 instructions:    1000001 cycles:     341527 heartbeat IPC: 2.92803 cumulative IPC: 2.92803 (Simulation time: 0 hr 0 min 5 sec) 
Heartbeat CPU  3 instructions:    1000002 cycles:     342851 heartbeat IPC: 2.91672 cumulative IPC: 2.91672 (Simulation time: 0 hr 0 min 5 sec) 
Heartbeat CPU  0 instructions:    1000000 cycles:     515699 heartbeat IPC: 1.93912 cumulative IPC: 1.93912 (Simulation time: 0 hr 0 min 8 sec) 
Heartbeat CPU  1 instructions:    2000000 cycles:     653457 heartbeat IPC: 3.18354 cumulative IPC: 3.06065 (Simulation time: 0 hr 0 min 10 sec) 
Heartbeat CPU  3 instructions:    2000002 cycles:     670576 heartbeat IPC: 3.05134 cumulative IPC: 2.98251 (Simulation time: 0 hr 0 min 10 sec) 
Heartbeat CPU  2 instructions:    2000001 cycles:     675412 heartbeat IPC: 2.99504 cumulative IPC: 2.96116 (Simulation time: 0 hr 0 min 10 sec) 
Heartbeat CPU  0 instructions:    2000002 cycles:     986654 heartbeat IPC: 2.12335 cumulative IPC: 2.02706 (Simulation time: 0 hr 0 min 14 sec) 
Heartbeat CPU  3 instructions:    3000001 cycles:     999606 heartbeat IPC: 3.03923 cumulative IPC: 3.00118 (Simulation time: 0 hr 0 min 15 sec) 
Heartbeat CPU  1 instructions:    3000001 cycles:    1076133 heartbeat IPC: 2.36588 cumulative IPC: 2.78776 (Simulation time: 0 hr 0 min 16 sec) 
Heartbeat CPU  2 instructions:    3000002 cycles:    1265192 heartbeat IPC: 1.69555 cumulative IPC: 2.37118 (Simulation time: 0 hr 0 min 18 sec) 
Heartbeat CPU  0 instructions:    3000002 cycles:    1321760 heartbeat IPC: 2.98413 cumulative IPC: 2.26970 (Simulation time: 0 hr 0 min 19 sec) 
Heartbeat CPU  3 instructions:    4000000 cycles:    1373355 heartbeat IPC: 2.67559 cumulative IPC: 2.91258 (Simulation time: 0 hr 0 min 19 sec) 
Heartbeat CPU  1 instructions:    4000000 cycles:    1585413 heartbeat IPC: 1.96355 cumulative IPC: 2.52300 (Simulation time: 0 hr 0 min 22 sec) 
Heartbeat CPU  0 instructions:    4000000 cycles:    1655726 heartbeat IPC: 2.99431 cumulative IPC: 2.41586 (Simulation time: 0 hr 0 min 23 sec) 
Heartbeat CPU  2 instructions:    4000000 cycles:    1691278 heartbeat IPC: 2.34694 cumulative IPC: 2.36508 (Simulation time: 0 hr 0 min 24 sec) 
Heartbeat CPU  1 instructions:    5000000 cycles:    1920458 heartbeat IPC: 2.98467 cumulative IPC: 2.60355 (Simulation time: 0 hr 0 min 27 sec) 
Heartbeat CPU  3 instructions:    5000001 cycles:    1953900 heartbeat IPC: 1.72252 cumulative IPC: 2.55898 (Simulation time: 0 hr 0 min 27 sec) 
Heartbeat CPU  0 instructions:    5000000 cycles:    1991139 heartbeat IPC: 2.98140 cumulative IPC: 2.51113 (Simulation time: 0 hr 0 min 28 sec) 
Heartbeat CPU  2 instructions:    5000001 cycles:    2027877 heartbeat IPC: 2.97090 cumulative IPC: 2.46563 (Simulation time: 0 hr 0 min 29 sec) 
Heartbeat CPU  1 instructions:    6000000 cycles:    2254504 heartbeat IPC: 2.99360 cumulative IPC: 2.66134 (Simulation time: 0 hr 0 min 32 sec) 
Heartbeat CPU  3 instructions:    6000000 cycles:    2300452 heartbeat IPC: 2.88557 cumulative IPC: 2.60818 (Simulation time: 0 hr 0 min 33 sec) 
Heartbeat CPU  2 instructions:    6000000 cycles:    2361239 heartbeat IPC: 2.99974 cumulative IPC: 2.54104 (Simulation time: 0 hr 0 min 34 sec) 
Heartbeat CPU  0 instructions:    6000003 cycles:    2378524 heartbeat IPC: 2.58142 cumulative IPC: 2.52257 (Simulation time: 0 hr 0 min 34 sec) 
Heartbeat CPU  1 instructions:    7000002 cycles:    2614318 heartbeat IPC: 2.77922 cumulative IPC: 2.67756 (Simulation time: 0 hr 0 min 37 sec) 
Heartbeat CPU  3 instructions:    7000000 cycles:    2635673 heartbeat IPC: 2.98311 cumulative IPC: 2.65587 (Simulation time: 0 hr 0 min 38 sec) 
Heartbeat CPU  2 instructions:    7000001 cycles:    2697127 heartbeat IPC: 2.97719 cumulative IPC: 2.59535 (Simulation time: 0 hr 0 min 38 sec) 
Heartbeat CPU  0 instructions:    7000000 cycles:    2923680 heartbeat IPC: 1.83433 cumulative IPC: 2.39424 (Simulation time: 0 hr 0 min 41 sec) 
Heartbeat CPU  1 instructions:    8000000 cycles:    2982406 heartbeat IPC: 2.71674 cumulative IPC: 2.68240 (Simulation time: 0 hr 0 min 42 sec) 
Heartbeat CPU  3 instructions:    8000000 cycles:    3023262 heartbeat IPC: 2.58005 cumulative IPC: 2.64615 (Simulation time: 0 hr 0 min 43 sec) 
Heartbeat CPU  2 instructions:    8000000 cycles:    3032212 heartbeat IPC: 2.98431 cumulative IPC: 2.63834 (Simulation time: 0 hr 0 min 43 sec) 
Heartbeat CPU  0 instructions:    8000000 cycles:    3318994 heartbeat IPC: 2.52963 cumulative IPC: 2.41037 (Simulation time: 0 hr 0 min 47 sec) 
Heartbeat CPU  1 instructions:    9000002 cycles:    3333457 heartbeat IPC: 2.84859 cumulative IPC: 2.69990 (Simulation time: 0 hr 0 min 47 sec) 
Heartbeat CPU  3 instructions:    9000000 cycles:    3364172 heartbeat IPC: 2.93333 cumulative IPC: 2.67525 (Simulation time: 0 hr 0 min 48 sec) 
Heartbeat CPU  2 instructions:    9000002 cycles:    3416908 heartbeat IPC: 2.59946 cumulative IPC: 2.63396 (Simulation time: 0 hr 0 min 49 sec) 
Heartbeat CPU  1 instructions:   10000000 cycles:    3660736 heartbeat IPC: 3.05549 cumulative IPC: 2.73169 (Simulation time: 0 hr 0 min 52 sec) 
Heartbeat CPU  2 instructions:   10000002 cycles:    3750934 heartbeat IPC: 2.99378 cumulative IPC: 2.66600 (Simulation time: 0 hr 0 min 53 sec) 
Heartbeat CPU  3 instructions:   10000001 cycles:    3769586 heartbeat IPC: 2.46662 cumulative IPC: 2.65281 (Simulation time: 0 hr 0 min 54 sec) 
Heartbeat CPU  0 instructions:    9000002 cycles:    3771387 heartbeat IPC: 2.21047 cumulative IPC: 2.38639 (Simulation time: 0 hr 0 min 54 sec) 
Heartbeat CPU  1 instructions:   11000002 cycles:    3996186 heartbeat IPC: 2.98108 cumulative IPC: 2.75263 (Simulation time: 0 hr 0 min 57 sec) 
Heartbeat CPU  3 instructions:   11000002 cycles:    4101569 heartbeat IPC: 3.01221 cumulative IPC: 2.68190 (Simulation time: 0 hr 0 min 58 sec) 
Heartbeat CPU  0 instructions:   10000000 cycles:    4187845 heartbeat IPC: 2.40120 cumulative IPC: 2.38786 (Simulation time: 0 hr 0 min 59 sec) 
Heartbeat CPU  2 instructions:   11000001 cycles:    4201327 heartbeat IPC: 2.22028 cumulative IPC: 2.61822 (Simulation time: 0 hr 1 min 0 sec) 
Heartbeat CPU  1 instructions:   12000000 cycles:    4330212 heartbeat IPC: 2.99377 cumulative IPC: 2.77123 (Simulation time: 0 hr 1 min 2 sec) 
Heartbeat CPU  3 instructions:   12000000 cycles:    4433893 heartbeat IPC: 3.00911 cumulative IPC: 2.70643 (Simulation time: 0 hr 1 min 3 sec) 
Heartbeat CPU  0 instructions:   11000001 cycles:    4535362 heartbeat IPC: 2.87756 cumulative IPC: 2.42539 (Simulation time: 0 hr 1 min 5 sec) 
Heartbeat CPU  2 instructions:   12000000 cycles:    4536292 heartbeat IPC: 2.98538 cumulative IPC: 2.64533 (Simulation time: 0 hr 1 min 5 sec) 
Heartbeat CPU  1 instructions:   13000000 cycles:    4663894 heartbeat IPC: 2.99687 cumulative IPC: 2.78737 (Simulation time: 0 hr 1 min 7 sec) 
Heartbeat CPU  3 instructions:   13000003 cycles:    4766622 heartbeat IPC: 3.00546 cumulative IPC: 2.72730 (Simulation time: 0 hr 1 min 8 sec) 
Heartbeat CPU  0 instructions:   12000000 cycles:    4869071 heartbeat IPC: 2.99662 cumulative IPC: 2.46454 (Simulation time: 0 hr 1 min 10 sec) 
Heartbeat CPU  2 instructions:   13000002 cycles:    4922313 heartbeat IPC: 2.59054 cumulative IPC: 2.64104 (Simulation time: 0 hr 1 min 11 sec) 
Heartbeat CPU  1 instructions:   14000001 cycles:    5023120 heartbeat IPC: 2.78377 cumulative IPC: 2.78711 (Simulation time: 0 hr 1 min 12 sec) 
Heartbeat CPU  3 instructions:   14000000 cycles:    5126975 heartbeat IPC: 2.77505 cumulative IPC: 2.73065 (Simulation time: 0 hr 1 min 14 sec) 
Heartbeat CPU  0 instructions:   13000002 cycles:    5203404 heartbeat IPC: 2.99104 cumulative IPC: 2.49836 (Simulation time: 0 hr 1 min 15 sec) 
Heartbeat CPU  2 instructions:   14000000 cycles:    5279895 heartbeat IPC: 2.79656 cumulative IPC: 2.65157 (Simulation time: 0 hr 1 min 16 sec) 
Heartbeat CPU  1 instructions:   15000000 cycles:    5348676 heartbeat IPC: 3.07167 cumulative IPC: 2.80443 (Simulation time: 0 hr 1 min 17 sec) 
Heartbeat CPU  3 instructions:   15000000 cycles:    5604406 heartbeat IPC: 2.09454 cumulative IPC: 2.67647 (Simulation time: 0 hr 1 min 20 sec) 
Heartbeat CPU  2 instructions:   15000002 cycles:    5650782 heartbeat IPC: 2.69624 cumulative IPC: 2.65450 (Simulation time: 0 hr 1 min 21 sec) 
Heartbeat CPU  0 instructions:   14000001 cycles:    5677702 heartbeat IPC: 2.10838 cumulative IPC: 2.46579 (Simulation time: 0 hr 1 min 21 sec) 
Heartbeat CPU  1 instructions:   16000000 cycles:    5757436 heartbeat IPC: 2.44642 cumulative IPC: 2.77901 (Simulation time: 0 hr 1 min 23 sec) 
Heartbeat CPU  3 instructions:   16000000 cycles:    5937250 heartbeat IPC: 3.00441 cumulative IPC: 2.69485 (Simulation time: 0 hr 1 min 25 sec) 
Heartbeat CPU  0 instructions:   15000000 cycles:    6087337 heartbeat IPC: 2.44120 cumulative IPC: 2.46413 (Simulation time: 0 hr 1 min 27 sec) 
Heartbeat CPU  2 instructions:   16000000 cycles:    6157325 heartbeat IPC: 1.97416 cumulative IPC: 2.59853 (Simulation time: 0 hr 1 min 28 sec) 
Heartbeat CPU  3 instructions:   17000000 cycles:    6270231 heartbeat IPC: 3.00317 cumulative IPC: 2.71122 (Simulation time: 0 hr 1 min 29 sec) 
Heartbeat CPU  0 instructions:   16000000 cycles:    6420841 heartbeat IPC: 2.99846 cumulative IPC: 2.49189 (Simulation time: 0 hr 1 min 31 sec) 
Heartbeat CPU  2 instructions:   17000001 cycles:    6539182 heartbeat IPC: 2.61878 cumulative IPC: 2.59971 (Simulation time: 0 hr 1 min 33 sec) 
Heartbeat CPU  1 instructions:   17000001 cycles:    6552687 heartbeat IPC: 1.25747 cumulative IPC: 2.59436 (Simulation time: 0 hr 1 min 33 sec) 
Heartbeat CPU  3 instructions:   18000000 cycles:    6674111 heartbeat IPC: 2.47598 cumulative IPC: 2.69699 (Simulation time: 0 hr 1 min 35 sec) 
Heartbeat CPU  0 instructions:   17000003 cycles:    6753051 heartbeat IPC: 3.01015 cumulative IPC: 2.51738 (Simulation time: 0 hr 1 min 36 sec) 
Heartbeat CPU  2 instructions:   18000000 cycles:    6873917 heartbeat IPC: 2.98743 cumulative IPC: 2.61859 (Simulation time: 0 hr 1 min 37 sec) 
Heartbeat CPU  1 instructions:   18000003 cycles:    6923460 heartbeat IPC: 2.69707 cumulative IPC: 2.59986 (Simulation time: 0 hr 1 min 38 sec) 
Heartbeat CPU  3 instructions:   19000001 cycles:    7074020 heartbeat IPC: 2.50057 cumulative IPC: 2.68588 (Simulation time: 0 hr 1 min 40 sec) 
Heartbeat CPU  2 instructions:   19000000 cycles:    7206704 heartbeat IPC: 3.00493 cumulative IPC: 2.63643 (Simulation time: 0 hr 1 min 41 sec) 
Heartbeat CPU  0 instructions:   18000001 cycles:    7302821 heartbeat IPC: 1.81894 cumulative IPC: 2.46480 (Simulation time: 0 hr 1 min 42 sec) 
Heartbeat CPU  3 instructions:   20000000 cycles:    7463607 heartbeat IPC: 2.56682 cumulative IPC: 2.67967 (Simulation time: 0 hr 1 min 44 sec) 
Heartbeat CPU  2 instructions:   20000000 cycles:    7533986 heartbeat IPC: 3.05547 cumulative IPC: 2.65464 (Simulation time: 0 hr 1 min 45 sec) 
Heartbeat CPU  0 instructions:   19000000 cycles:    7761626 heartbeat IPC: 2.17957 cumulative IPC: 2.44794 (Simulation time: 0 hr 1 min 48 sec) 
Heartbeat CPU  3 instructions:   21000003 cycles:    7833418 heartbeat IPC: 2.70409 cumulative IPC: 2.68082 (Simulation time: 0 hr 1 min 49 sec) 
Heartbeat CPU  1 instructions:   19000000 cycles:    7844123 heartbeat IPC: 1.08617 cumulative IPC: 2.42220 (Simulation time: 0 hr 1 min 49 sec) 
Heartbeat CPU  2 instructions:   21000002 cycles:    7866896 heartbeat IPC: 3.00382 cumulative IPC: 2.66941 (Simulation time: 0 hr 1 min 50 sec) 
Heartbeat CPU  0 instructions:   20000000 cycles:    8170989 heartbeat IPC: 2.44282 cumulative IPC: 2.44768 (Simulation time: 0 hr 1 min 54 sec) 
Heartbeat CPU  3 instructions:   22000003 cycles:    8178844 heartbeat IPC: 2.89498 cumulative IPC: 2.68987 (Simulation time: 0 hr 1 min 54 sec) 
Heartbeat CPU  2 instructions:   22000001 cycles:    8194011 heartbeat IPC: 3.05703 cumulative IPC: 2.68489 (Simulation time: 0 hr 1 min 54 sec) 
Heartbeat CPU  3 instructions:   23000000 cycles:    8513261 heartbeat IPC: 2.99027 cumulative IPC: 2.70167 (Simulation time: 0 hr 1 min 58 sec) 
Heartbeat CPU  2 instructions:   23000002 cycles:    8527045 heartbeat IPC: 3.00270 cumulative IPC: 2.69730 (Simulation time: 0 hr 1 min 58 sec) 
Heartbeat CPU  0 instructions:   21000000 cycles:    8661896 heartbeat IPC: 2.03705 cumulative IPC: 2.42441 (Simulation time: 0 hr 2 min 0 sec) 
Heartbeat CPU  1 instructions:   20000000 cycles:    8765504 heartbeat IPC: 1.08533 cumulative IPC: 2.28167 (Simulation time: 0 hr 2 min 1 sec) 
Heartbeat CPU  3 instructions:   24000000 cycles:    8890437 heartbeat IPC: 2.65128 cumulative IPC: 2.69953 (Simulation time: 0 hr 2 min 2 sec) 
Heartbeat CPU  2 instructions:   24000000 cycles:    9030880 heartbeat IPC: 1.98477 cumulative IPC: 2.65755 (Simulation time: 0 hr 2 min 4 sec) 
Heartbeat CPU  0 instructions:   22000000 cycles:    9218778 heartbeat IPC: 1.79571 cumulative IPC: 2.38643 (Simulation time: 0 hr 2 min 7 sec) 
Heartbeat CPU  1 instructions:   21000001 cycles:    9263263 heartbeat IPC: 2.00901 cumulative IPC: 2.26702 (Simulation time: 0 hr 2 min 7 sec) 
Heartbeat CPU  3 instructions:   25000002 cycles:    9343794 heartbeat IPC: 2.20577 cumulative IPC: 2.67557 (Simulation time: 0 hr 2 min 9 sec) 
Heartbeat CPU  2 instructions:   25000000 cycles:    9375230 heartbeat IPC: 2.90402 cumulative IPC: 2.66660 (Simulation time: 0 hr 2 min 9 sec) 
Heartbeat CPU  0 instructions:   23000003 cycles:    9564622 heartbeat IPC: 2.89149 cumulative IPC: 2.40470 (Simulation time: 0 hr 2 min 12 sec) 
Heartbeat CPU  1 instructions:   22000002 cycles:    9605456 heartbeat IPC: 2.92233 cumulative IPC: 2.29037 (Simulation time: 0 hr 2 min 13 sec) 
Heartbeat CPU  3 instructions:   26000002 cycles:    9685791 heartbeat IPC: 2.92400 cumulative IPC: 2.68434 (Simulation time: 0 hr 2 min 14 sec) 
Heartbeat CPU  2 instructions:   26000000 cycles:    9754459 heartbeat IPC: 2.63693 cumulative IPC: 2.66545 (Simulation time: 0 hr 2 min 15 sec) 
Heartbeat CPU  0 instructions:   24000000 cycles:    9898282 heartbeat IPC: 2.99705 cumulative IPC: 2.42466 (Simulation time: 0 hr 2 min 17 sec) 
Heartbeat CPU  1 instructions:   23000002 cycles:    9927051 heartbeat IPC: 3.10950 cumulative IPC: 2.31690 (Simulation time: 0 hr 2 min 18 sec) 
Heartbeat CPU  3 instructions:   27000000 cycles:   10020088 heartbeat IPC: 2.99135 cumulative IPC: 2.69459 (Simulation time: 0 hr 2 min 19 sec) 
Heartbeat CPU  2 instructions:   27000000 cycles:   10131512 heartbeat IPC: 2.65215 cumulative IPC: 2.66495 (Simulation time: 0 hr 2 min 21 sec) 
Heartbeat CPU  0 instructions:   25000000 cycles:   10231515 heartbeat IPC: 3.00090 cumulative IPC: 2.44343 (Simulation time: 0 hr 2 min 23 sec) 
Heartbeat CPU  1 instructions:   24000000 cycles:   10255748 heartbeat IPC: 3.04231 cumulative IPC: 2.34015 (Simulation time: 0 hr 2 min 23 sec) 
Heartbeat CPU  3 instructions:   28000000 cycles:   10350415 heartbeat IPC: 3.02730 cumulative IPC: 2.70521 (Simulation time: 0 hr 2 min 24 sec) 
Heartbeat CPU  2 instructions:   28000000 cycles:   10522704 heartbeat IPC: 2.55629 cumulative IPC: 2.66091 (Simulation time: 0 hr 2 min 27 sec) 
Heartbeat CPU  1 instructions:   25000003 cycles:   10571600 heartbeat IPC: 3.16605 cumulative IPC: 2.36483 (Simulation time: 0 hr 2 min 28 sec) 
Heartbeat CPU  0 instructions:   26000000 cycles:   10712440 heartbeat IPC: 2.07933 cumulative IPC: 2.42708 (Simulation time: 0 hr 2 min 29 sec) 
Heartbeat CPU  3 instructions:   29000003 cycles:   10736694 heartbeat IPC: 2.58881 cumulative IPC: 2.70102 (Simulation time: 0 hr 2 min 30 sec) 
Heartbeat CPU  2 instructions:   29000003 cycles:   10863596 heartbeat IPC: 2.93349 cumulative IPC: 2.66947 (Simulation time: 0 hr 2 min 32 sec) 
Heartbeat CPU  0 instructions:   27000001 cycles:   11049365 heartbeat IPC: 2.96802 cumulative IPC: 2.44358 (Simulation time: 0 hr 2 min 35 sec) 
Heartbeat CPU  1 instructions:   26000001 cycles:   11055031 heartbeat IPC: 2.06854 cumulative IPC: 2.35187 (Simulation time: 0 hr 2 min 35 sec) 
Heartbeat CPU  3 instructions:   30000000 cycles:   11153836 heartbeat IPC: 2.39726 cumulative IPC: 2.68966 (Simulation time: 0 hr 2 min 36 sec) 
Heartbeat CPU  2 instructions:   30000000 cycles:   11198492 heartbeat IPC: 2.98599 cumulative IPC: 2.67893 (Simulation time: 0 hr 2 min 37 sec) 
Heartbeat CPU  0 instructions:   28000000 cycles:   11383459 heartbeat IPC: 2.99317 cumulative IPC: 2.45971 (Simulation time: 0 hr 2 min 40 sec) 
Heartbeat CPU  1 instructions:   27000001 cycles:   11388043 heartbeat IPC: 3.00289 cumulative IPC: 2.37091 (Simulation time: 0 hr 2 min 40 sec) 
Heartbeat CPU  3 instructions:   31000002 cycles:   11485570 heartbeat IPC: 3.01447 cumulative IPC: 2.69904 (Simulation time: 0 hr 2 min 41 sec) 
Heartbeat CPU  2 instructions:   31000001 cycles:   11532148 heartbeat IPC: 2.99710 cumulative IPC: 2.68814 (Simulation time: 0 hr 2 min 42 sec) 
Heartbeat CPU  0 instructions:   29000003 cycles:   11717486 heartbeat IPC: 2.99378 cumulative IPC: 2.47493 (Simulation time: 0 hr 2 min 45 sec) 
Heartbeat CPU  3 instructions:   32000000 cycles:   11818941 heartbeat IPC: 2.99966 cumulative IPC: 2.70752 (Simulation time: 0 hr 2 min 47 sec) 
Heartbeat CPU  2 instructions:   32000000 cycles:   11900567 heartbeat IPC: 2.71430 cumulative IPC: 2.68895 (Simulation time: 0 hr 2 min 48 sec) 
Heartbeat CPU  1 instructions:   28000000 cycles:   11970613 heartbeat IPC: 1.71653 cumulative IPC: 2.33906 (Simulation time: 0 hr 2 min 49 sec) 
Heartbeat CPU  0 instructions:   30000002 cycles:   12058136 heartbeat IPC: 2.93556 cumulative IPC: 2.48795 (Simulation time: 0 hr 2 min 50 sec) 
Heartbeat CPU  3 instructions:   33000000 cycles:   12216351 heartbeat IPC: 2.51629 cumulative IPC: 2.70130 (Simulation time: 0 hr 2 min 53 sec) 
Heartbeat CPU  2 instructions:   33000000 cycles:   12234176 heartbeat IPC: 2.99752 cumulative IPC: 2.69736 (Simulation time: 0 hr 2 min 53 sec) 
Heartbeat CPU  1 instructions:   29000001 cycles:   12436177 heartbeat IPC: 2.14793 cumulative IPC: 2.33191 (Simulation time: 0 hr 2 min 56 sec) 
Heartbeat CPU  0 instructions:   31000003 cycles:   12457679 heartbeat IPC: 2.50286 cumulative IPC: 2.48843 (Simulation time: 0 hr 2 min 56 sec) 
Heartbeat CPU  2 instructions:   34000000 cycles:   12589200 heartbeat IPC: 2.81671 cumulative IPC: 2.70073 (Simulation time: 0 hr 2 min 58 sec) 
Heartbeat CPU  3 instructions:   34000000 cycles:   12697637 heartbeat IPC: 2.07777 cumulative IPC: 2.67766 (Simulation time: 0 hr 3 min 0 sec) 
Heartbeat CPU  0 instructions:   32000000 cycles:   12792615 heartbeat IPC: 2.98564 cumulative IPC: 2.50144 (Simulation time: 0 hr 3 min 1 sec) 
Heartbeat CPU  1 instructions:   30000002 cycles:   12858765 heartbeat IPC: 2.36637 cumulative IPC: 2.33304 (Simulation time: 0 hr 3 min 2 sec) 
Heartbeat CPU  2 instructions:   35000001 cycles:   12921393 heartbeat IPC: 3.01030 cumulative IPC: 2.70869 (Simulation time: 0 hr 3 min 3 sec) 
Heartbeat CPU  3 instructions:   35000003 cycles:   13092128 heartbeat IPC: 2.53492 cumulative IPC: 2.67336 (Simulation time: 0 hr 3 min 6 sec) 
Heartbeat CPU  0 instructions:   33000003 cycles:   13124703 heartbeat IPC: 3.01126 cumulative IPC: 2.51434 (Simulation time: 0 hr 3 min 6 sec) 
Heartbeat CPU  2 instructions:   36000000 cycles:   13292537 heartbeat IPC: 2.69437 cumulative IPC: 2.70829 (Simulation time: 0 hr 3 min 8 sec) 
Heartbeat CPU  1 instructions:   31000000 cycles:   13354596 heartbeat IPC: 2.01681 cumulative IPC: 2.32130 (Simulation time: 0 hr 3 min 9 sec) 
Heartbeat CPU  3 instructions:   36000000 cycles:   13424123 heartbeat IPC: 3.01208 cumulative IPC: 2.68174 (Simulation time: 0 hr 3 min 10 sec) 
Heartbeat CPU  0 instructions:   34000000 cycles:   13725970 heartbeat IPC: 1.66315 cumulative IPC: 2.47706 (Simulation time: 0 hr 3 min 12 sec) 
Heartbeat CPU  3 instructions:   37000000 cycles:   13764094 heartbeat IPC: 2.94143 cumulative IPC: 2.68815 (Simulation time: 0 hr 3 min 13 sec) 
Heartbeat CPU  2 instructions:   37000001 cycles:   13995762 heartbeat IPC: 1.42202 cumulative IPC: 2.64366 (Simulation time: 0 hr 3 min 16 sec) 
Heartbeat CPU  1 instructions:   32000000 cycles:   14024387 heartbeat IPC: 1.49300 cumulative IPC: 2.28174 (Simulation time: 0 hr 3 min 16 sec) 
Heartbeat CPU  3 instructions:   38000002 cycles:   14096662 heartbeat IPC: 3.00691 cumulative IPC: 2.69567 (Simulation time: 0 hr 3 min 17 sec) 
Heartbeat CPU  0 instructions:   35000001 cycles:   14343321 heartbeat IPC: 1.61983 cumulative IPC: 2.44016 (Simulation time: 0 hr 3 min 21 sec) 
Heartbeat CPU  2 instructions:   38000002 cycles:   14357818 heartbeat IPC: 2.76201 cumulative IPC: 2.64664 (Simulation time: 0 hr 3 min 21 sec) 
Heartbeat CPU  1 instructions:   33000001 cycles:   14416671 heartbeat IPC: 2.54918 cumulative IPC: 2.28902 (Simulation time: 0 hr 3 min 22 sec) 
Heartbeat CPU  3 instructions:   39000001 cycles:   14428864 heartbeat IPC: 3.01021 cumulative IPC: 2.70292 (Simulation time: 0 hr 3 min 22 sec) 
Heartbeat CPU  2 instructions:   39000002 cycles:   14692265 heartbeat IPC: 2.99001 cumulative IPC: 2.65446 (Simulation time: 0 hr 3 min 25 sec) 
Heartbeat CPU  3 instructions:   40000000 cycles:   14755406 heartbeat IPC: 3.06239 cumulative IPC: 2.71087 (Simulation time: 0 hr 3 min 26 sec) 
Heartbeat CPU  2 instructions:   40000000 cycles:   15025929 heartbeat IPC: 2.99702 cumulative IPC: 2.66207 (Simulation time: 0 hr 3 min 29 sec) 
Heartbeat CPU  1 instructions:   34000000 cycles:   15051747 heartbeat IPC: 1.57461 cumulative IPC: 2.25887 (Simulation time: 0 hr 3 min 29 sec) 
Heartbeat CPU  3 instructions:   41000001 cycles:   15095011 heartbeat IPC: 2.94460 cumulative IPC: 2.71613 (Simulation time: 0 hr 3 min 30 sec) 
Heartbeat CPU  0 instructions:   36000000 cycles:   15232512 heartbeat IPC: 1.12462 cumulative IPC: 2.36337 (Simulation time: 0 hr 3 min 32 sec) 
Heartbeat CPU  2 instructions:   41000000 cycles:   15361818 heartbeat IPC: 2.97717 cumulative IPC: 2.66895 (Simulation time: 0 hr 3 min 33 sec) 
Heartbeat CPU  3 instructions:   42000000 cycles:   15624677 heartbeat IPC: 1.88798 cumulative IPC: 2.68806 (Simulation time: 0 hr 3 min 36 sec) 
Heartbeat CPU  1 instructions:   35000000 cycles:   15705302 heartbeat IPC: 1.53009 cumulative IPC: 2.22855 (Simulation time: 0 hr 3 min 36 sec) 
Heartbeat CPU  2 instructions:   42000000 cycles:   15829980 heartbeat IPC: 2.13601 cumulative IPC: 2.65319 (Simulation time: 0 hr 3 min 37 sec) 
Heartbeat CPU  0 instructions:   37000001 cycles:   15975342 heartbeat IPC: 1.34620 cumulative IPC: 2.31607 (Simulation time: 0 hr 3 min 39 sec) 
Heartbeat CPU  3 instructions:   43000000 cycles:   16105293 heartbeat IPC: 2.08066 cumulative IPC: 2.66993 (Simulation time: 0 hr 3 min 40 sec) 
Heartbeat CPU  0 instructions:   38000002 cycles:   16393925 heartbeat IPC: 2.38901 cumulative IPC: 2.31793 (Simulation time: 0 hr 3 min 43 sec) 
Heartbeat CPU  2 instructions:   43000000 cycles:   16395405 heartbeat IPC: 1.76858 cumulative IPC: 2.62269 (Simulation time: 0 hr 3 min 43 sec) 
Heartbeat CPU  3 instructions:   44000000 cycles:   16573219 heartbeat IPC: 2.13709 cumulative IPC: 2.65489 (Simulation time: 0 hr 3 min 45 sec) 
Heartbeat CPU  1 instructions:   36000000 cycles:   16709380 heartbeat IPC: 0.99594 cumulative IPC: 2.15448 (Simulation time: 0 hr 3 min 47 sec) 
Heartbeat CPU  0 instructions:   39000000 cycles:   16820071 heartbeat IPC: 2.34661 cumulative IPC: 2.31866 (Simulation time: 0 hr 3 min 48 sec) 
Heartbeat CPU  2 instructions:   44000000 cycles:   17155356 heartbeat IPC: 1.31587 cumulative IPC: 2.56480 (Simulation time: 0 hr 3 min 51 sec) 
Heartbeat CPU  3 instructions:   45000001 cycles:   17164858 heartbeat IPC: 1.69022 cumulative IPC: 2.62164 (Simulation time: 0 hr 3 min 51 sec) 
Heartbeat CPU  1 instructions:   37000001 cycles:   17273268 heartbeat IPC: 1.77340 cumulative IPC: 2.14204 (Simulation time: 0 hr 3 min 53 sec) 
Heartbeat CPU  0 instructions:   40000000 cycles:   17356484 heartbeat IPC: 1.86424 cumulative IPC: 2.30461 (Simulation time: 0 hr 3 min 54 sec) 
Heartbeat CPU  2 instructions:   45000001 cycles:   17490182 heartbeat IPC: 2.98663 cumulative IPC: 2.57287 (Simulation time: 0 hr 3 min 56 sec) 
Heartbeat CPU  3 instructions:   46000001 cycles:   17493724 heartbeat IPC: 3.04075 cumulative IPC: 2.62951 (Simulation time: 0 hr 3 min 56 sec) 
Heartbeat CPU  0 instructions:   41000000 cycles:   17689807 heartbeat IPC: 3.00009 cumulative IPC: 2.31772 (Simulation time: 0 hr 3 min 58 sec) 
Heartbeat CPU  3 instructions:   47000003 cycles:   17837928 heartbeat IPC: 2.90526 cumulative IPC: 2.63484 (Simulation time: 0 hr 4 min 0 sec) 
Heartbeat CPU  2 instructions:   46000001 cycles:   17894444 heartbeat IPC: 2.47364 cumulative IPC: 2.57063 (Simulation time: 0 hr 4 min 1 sec) 
Heartbeat CPU  0 instructions:   42000000 cycles:   18060407 heartbeat IPC: 2.69833 cumulative IPC: 2.32553 (Simulation time: 0 hr 4 min 3 sec) 
Heartbeat CPU  1 instructions:   38000002 cycles:   18210642 heartbeat IPC: 1.06681 cumulative IPC: 2.08669 (Simulation time: 0 hr 4 min 4 sec) 
Heartbeat CPU  3 instructions:   48000000 cycles:   18226199 heartbeat IPC: 2.57551 cumulative IPC: 2.63357 (Simulation time: 0 hr 4 min 5 sec) 
Heartbeat CPU  2 instructions:   47000000 cycles:   18298017 heartbeat IPC: 2.47786 cumulative IPC: 2.56858 (Simulation time: 0 hr 4 min 5 sec) 
Heartbeat CPU  3 instructions:   49000003 cycles:   18562994 heartbeat IPC: 2.96917 cumulative IPC: 2.63966 (Simulation time: 0 hr 4 min 8 sec) 
Heartbeat CPU  2 instructions:   48000000 cycles:   18660118 heartbeat IPC: 2.76166 cumulative IPC: 2.57233 (Simulation time: 0 hr 4 min 9 sec) 
Heartbeat CPU  0 instructions:   43000000 cycles:   18893161 heartbeat IPC: 1.20083 cumulative IPC: 2.27596 (Simulation time: 0 hr 4 min 12 sec) 
Heartbeat CPU  3 instructions:   50000003 cycles:   18897887 heartbeat IPC: 2.98603 cumulative IPC: 2.64580 (Simulation time: 0 hr 4 min 12 sec) 
Heartbeat CPU  2 instructions:   49000003 cycles:   18994412 heartbeat IPC: 2.99139 cumulative IPC: 2.57971 (Simulation time: 0 hr 4 min 14 sec) 
Heartbeat CPU  1 instructions:   39000000 cycles:   19012525 heartbeat IPC: 1.24706 cumulative IPC: 2.05128 (Simulation time: 0 hr 4 min 14 sec) 
Heartbeat CPU  3 instructions:   51000001 cycles:   19223797 heartbeat IPC: 3.06833 cumulative IPC: 0.05202 (Simulation time: 0 hr 4 min 17 sec) 
Heartbeat CPU  2 instructions:   50000001 cycles:   19336467 heartbeat IPC: 2.92350 cumulative IPC: 2.58579 (Simulation time: 0 hr 4 min 18 sec) 
Heartbeat CPU  3 instructions:   52000000 cycles:   19559888 heartbeat IPC: 2.97538 cumulative IPC: 0.10225 (Simulation time: 0 hr 4 min 21 sec) 
Heartbeat CPU  1 instructions:   40000000 cycles:   19573126 heartbeat IPC: 1.78380 cumulative IPC: 2.04362 (Simulation time: 0 hr 4 min 21 sec) 
Heartbeat CPU  0 instructions:   44000000 cycles:   19596485 heartbeat IPC: 1.42182 cumulative IPC: 2.24530 (Simulation time: 0 hr 4 min 21 sec) 
Heartbeat CPU  2 instructions:   51000000 cycles:   19712335 heartbeat IPC: 2.66051 cumulative IPC: 0.05073 (Simulation time: 0 hr 4 min 23 sec) 
Heartbeat CPU  3 instructions:   53000000 cycles:   19896870 heartbeat IPC: 2.96752 cumulative IPC: 0.15078 (Simulation time: 0 hr 4 min 25 sec) 
Heartbeat CPU  1 instructions:   41000000 cycles:   19910396 heartbeat IPC: 2.96498 cumulative IPC: 2.05923 (Simulation time: 0 hr 4 min 26 sec) 
Heartbeat CPU  2 instructions:   52000000 cycles:   20045383 heartbeat IPC: 3.00257 cumulative IPC: 0.09977 (Simulation time: 0 hr 4 min 27 sec) 
Heartbeat CPU  3 instructions:   54000001 cycles:   20273404 heartbeat IPC: 2.65581 cumulative IPC: 0.19730 (Simulation time: 0 hr 4 min 30 sec) 
Heartbeat CPU  1 instructions:   42000001 cycles:   20279095 heartbeat IPC: 2.71224 cumulative IPC: 2.07110 (Simulation time: 0 hr 4 min 31 sec) 
Heartbeat CPU  0 instructions:   45000003 cycles:   20285322 heartbeat IPC: 1.45173 cumulative IPC: 2.21835 (Simulation time: 0 hr 4 min 31 sec) 
Heartbeat CPU  2 instructions:   53000002 cycles:   20378118 heartbeat IPC: 3.00540 cumulative IPC: 0.14722 (Simulation time: 0 hr 4 min 32 sec) 
Heartbeat CPU  3 instructions:   55000000 cycles:   20707772 heartbeat IPC: 2.30219 cumulative IPC: 0.24146 (Simulation time: 0 hr 4 min 35 sec) 
Heartbeat CPU  0 instructions:   46000001 cycles:   20795277 heartbeat IPC: 1.96095 cumulative IPC: 2.21204 (Simulation time: 0 hr 4 min 36 sec) 
Heartbeat CPU  2 instructions:   54000000 cycles:   20805075 heartbeat IPC: 2.34215 cumulative IPC: 0.19226 (Simulation time: 0 hr 4 min 36 sec) 
Heartbeat CPU  0 instructions:   47000001 cycles:   21184287 heartbeat IPC: 2.57063 cumulative IPC: 2.21863 (Simulation time: 0 hr 4 min 40 sec) 
Heartbeat CPU  1 instructions:   43000002 cycles:   21234245 heartbeat IPC: 1.04696 cumulative IPC: 2.02503 (Simulation time: 0 hr 4 min 41 sec) 
Heartbeat CPU  2 instructions:   55000003 cycles:   21394942 heartbeat IPC: 1.69530 cumulative IPC: 0.23370 (Simulation time: 0 hr 4 min 42 sec) 
Heartbeat CPU  3 instructions:   56000000 cycles:   21407204 heartbeat IPC: 1.42973 cumulative IPC: 0.28028 (Simulation time: 0 hr 4 min 43 sec) 
Heartbeat CPU  0 instructions:   48000000 cycles:   21605400 heartbeat IPC: 2.37466 cumulative IPC: 2.22167 (Simulation time: 0 hr 4 min 45 sec) 
Heartbeat CPU  3 instructions:   57000000 cycles:   21825020 heartbeat IPC: 2.39340 cumulative IPC: 0.32073 (Simulation time: 0 hr 4 min 47 sec) 
Heartbeat CPU  1 instructions:   44000000 cycles:   21884100 heartbeat IPC: 1.53880 cumulative IPC: 2.01059 (Simulation time: 0 hr 4 min 48 sec) 
Heartbeat CPU  0 instructions:   49000003 cycles:   21940130 heartbeat IPC: 2.98749 cumulative IPC: 2.23335 (Simulation time: 0 hr 4 min 49 sec) 
Heartbeat CPU  2 instructions:   56000000 cycles:   21947503 heartbeat IPC: 1.80975 cumulative IPC: 0.27338 (Simulation time: 0 hr 4 min 49 sec) 
Heartbeat CPU  2 instructions:   57000001 cycles:   22333490 heartbeat IPC: 2.59076 cumulative IPC: 0.31343 (Simulation time: 0 hr 4 min 53 sec) 
Heartbeat CPU  3 instructions:   58000000 cycles:   22401806 heartbeat IPC: 1.73375 cumulative IPC: 0.35711 (Simulation time: 0 hr 4 min 54 sec) 
Heartbeat CPU  0 instructions:   50000000 cycles:   22420654 heartbeat IPC: 2.08106 cumulative IPC: 2.23009 (Simulation time: 0 hr 4 min 54 sec) 
Heartbeat CPU  1 instructions:   45000003 cycles:   22690739 heartbeat IPC: 1.23972 cumulative IPC: 1.98319 (Simulation time: 0 hr 4 min 57 sec) 
Heartbeat CPU  0 instructions:   51000001 cycles:   22856023 heartbeat IPC: 2.29690 cumulative IPC: 0.04375 (Simulation time: 0 hr 4 min 59 sec) 
Heartbeat CPU  2 instructions:   58000001 cycles:   22932030 heartbeat IPC: 1.67073 cumulative IPC: 0.34886 (Simulation time: 0 hr 4 min 59 sec) 
Heartbeat CPU  3 instructions:   59000000 cycles:   23075127 heartbeat IPC: 1.48518 cumulative IPC: 0.39003 (Simulation time: 0 hr 5 min 1 sec) 
Heartbeat CPU  0 instructions:   52000000 cycles:   23188212 heartbeat IPC: 3.01033 cumulative IPC: 0.08625 (Simulation time: 0 hr 5 min 2 sec) 
Heartbeat CPU  1 instructions:   46000001 cycles:   23350252 heartbeat IPC: 1.51627 cumulative IPC: 1.97000 (Simulation time: 0 hr 5 min 4 sec) 
Heartbeat CPU  0 instructions:   53000002 cycles:   23520194 heartbeat IPC: 3.01222 cumulative IPC: 0.12755 (Simulation time: 0 hr 5 min 6 sec) 
Heartbeat CPU  2 instructions:   59000000 cycles:   23602108 heartbeat IPC: 1.49236 cumulative IPC: 0.38132 (Simulation time: 0 hr 5 min 7 sec) 
Heartbeat CPU  3 instructions:   60000000 cycles:   23604563 heartbeat IPC: 1.88880 cumulative IPC: 0.42365 (Simulation time: 0 hr 5 min 7 sec) 
Heartbeat CPU  1 instructions:   47000003 cycles:   23686946 heartbeat IPC: 2.97006 cumulative IPC: 1.98422 (Simulation time: 0 hr 5 min 9 sec) 
Heartbeat CPU  0 instructions:   54000000 cycles:   23956512 heartbeat IPC: 2.29190 cumulative IPC: 0.16697 (Simulation time: 0 hr 5 min 12 sec) 
Heartbeat CPU  1 instructions:   48000000 cycles:   24020209 heartbeat IPC: 3.00062 cumulative IPC: 1.99832 (Simulation time: 0 hr 5 min 13 sec) 
Heartbeat CPU  2 instructions:   60000000 cycles:   24145800 heartbeat IPC: 1.83928 cumulative IPC: 0.41415 (Simulation time: 0 hr 5 min 14 sec) 
Heartbeat CPU  3 instructions:   61000002 cycles:   24163924 heartbeat IPC: 1.78776 cumulative IPC: 0.45522 (Simulation time: 0 hr 5 min 15 sec) 
Heartbeat CPU  0 instructions:   55000001 cycles:   24326138 heartbeat IPC: 2.70544 cumulative IPC: 0.20554 (Simulation time: 0 hr 5 min 17 sec) 
Heartbeat CPU  1 instructions:   49000001 cycles:   24354697 heartbeat IPC: 2.98965 cumulative IPC: 2.01193 (Simulation time: 0 hr 5 min 17 sec) 
Heartbeat CPU  1 instructions:   50000002 cycles:   24686889 heartbeat IPC: 3.01031 cumulative IPC: 2.02537 (Simulation time: 0 hr 5 min 21 sec) 

Warmup complete CPU  0 instructions:   55805219 cycles:   24686889 (Simulation time: 0 hr 5 min 21 sec) 
Warmup complete CPU  1 instructions:   50000002 cycles:   24686889 (Simulation time: 0 hr 5 min 21 sec) 
Warmup complete CPU  2 instructions:   60943569 cycles:   24686888 (Simulation time: 0 hr 5 min 21 sec) 
Warmup complete CPU  3 instructions:   61730686 cycles:   24686889 (Simulation time: 0 hr 5 min 21 sec) 

Heartbeat CPU  2 instructions:   61000002 cycles:   24901248 heartbeat IPC: 1.32372 cumulative IPC: 0.26326 (Simulation time: 0 hr 5 min 21 sec) 
Heartbeat CPU  0 instructions:   56000000 cycles:   25221967 heartbeat IPC: 1.11628 cumulative IPC: 0.36402 (Simulation time: 0 hr 5 min 22 sec) 
Heartbeat CPU  3 instructions:   62000000 cycles:   25259948 heartbeat IPC: 0.91239 cumulative IPC: 0.46996 (Simulation time: 0 hr 5 min 22 sec) 
Heartbeat CPU  0 instructions:   57000000 cycles:   27770929 heartbeat IPC: 0.39232 cumulative IPC: 0.38741 (Simulation time: 0 hr 5 min 29 sec) 
Heartbeat CPU  2 instructions:   62000000 cycles:   28011027 heartbeat IPC: 0.32157 cumulative IPC: 0.31781 (Simulation time: 0 hr 5 min 30 sec) 
Heartbeat CPU  1 instructions:   51000003 cycles:   28232796 heartbeat IPC: 0.28202 cumulative IPC: 0.28202 (Simulation time: 0 hr 5 min 30 sec) 
Heartbeat CPU  3 instructions:   63000000 cycles:   28867033 heartbeat IPC: 0.27723 cumulative IPC: 0.30365 (Simulation time: 0 hr 5 min 32 sec) 
Heartbeat CPU  1 instructions:   52000000 cycles:   30070107 heartbeat IPC: 0.54427 cumulative IPC: 0.37152 (Simulation time: 0 hr 5 min 35 sec) 
Heartbeat CPU  0 instructions:   58000002 cycles:   30430910 heartbeat IPC: 0.37594 cumulative IPC: 0.38210 (Simulation time: 0 hr 5 min 36 sec) 
Heartbeat CPU  2 instructions:   63000000 cycles:   31754892 heartbeat IPC: 0.26710 cumulative IPC: 0.29095 (Simulation time: 0 hr 5 min 40 sec) 
Heartbeat CPU  1 instructions:   53000003 cycles:   32402853 heartbeat IPC: 0.42868 cumulative IPC: 0.38880 (Simulation time: 0 hr 5 min 42 sec) 
Heartbeat CPU  0 instructions:   59000002 cycles:   32581017 heartbeat IPC: 0.46509 cumulative IPC: 0.40470 (Simulation time: 0 hr 5 min 42 sec) 
Heartbeat CPU  3 instructions:   64000000 cycles:   35424422 heartbeat IPC: 0.15250 cumulative IPC: 0.21134 (Simulation time: 0 hr 5 min 48 sec) 
Heartbeat CPU  1 instructions:   54000003 cycles:   35569907 heartbeat IPC: 0.31575 cumulative IPC: 0.36755 (Simulation time: 0 hr 5 min 48 sec) 
Heartbeat CPU  2 instructions:   64000000 cycles:   36393504 heartbeat IPC: 0.21558 cumulative IPC: 0.26109 (Simulation time: 0 hr 5 min 50 sec) 
Heartbeat CPU  0 instructions:   60000000 cycles:   37313035 heartbeat IPC: 0.21133 cumulative IPC: 0.33223 (Simulation time: 0 hr 5 min 52 sec) 
Heartbeat CPU  1 instructions:   55000003 cycles:   38176839 heartbeat IPC: 0.38359 cumulative IPC: 0.37065 (Simulation time: 0 hr 5 min 54 sec) 
Heartbeat CPU  3 instructions:   65000000 cycles:   40079474 heartbeat IPC: 0.21482 cumulative IPC: 0.21240 (Simulation time: 0 hr 5 min 58 sec) 
Heartbeat CPU  2 instructions:   65000002 cycles:   41676322 heartbeat IPC: 0.18929 cumulative IPC: 0.23876 (Simulation time: 0 hr 6 min 1 sec) 
Heartbeat CPU  0 instructions:   61000003 cycles:   41801380 heartbeat IPC: 0.22280 cumulative IPC: 0.30353 (Simulation time: 0 hr 6 min 2 sec) 
Heartbeat CPU  1 instructions:   56000000 cycles:   41972481 heartbeat IPC: 0.26346 cumulative IPC: 0.34711 (Simulation time: 0 hr 6 min 2 sec) 
Heartbeat CPU  1 instructions:   57000001 cycles:   44327973 heartbeat IPC: 0.42454 cumulative IPC: 0.35640 (Simulation time: 0 hr 6 min 8 sec) 
Heartbeat CPU  3 instructions:   66000000 cycles:   44621119 heartbeat IPC: 0.22018 cumulative IPC: 0.21417 (Simulation time: 0 hr 6 min 9 sec) 
Heartbeat CPU  0 instructions:   62000001 cycles:   45396711 heartbeat IPC: 0.27814 cumulative IPC: 0.29912 (Simulation time: 0 hr 6 min 11 sec) 
Heartbeat CPU  2 instructions:   66000000 cycles:   46765237 heartbeat IPC: 0.19651 cumulative IPC: 0.22902 (Simulation time: 0 hr 6 min 14 sec) 
Heartbeat CPU  1 instructions:   58000003 cycles:   47706346 heartbeat IPC: 0.29600 cumulative IPC: 0.34753 (Simulation time: 0 hr 6 min 17 sec) 
Heartbeat CPU  0 instructions:   63000000 cycles:   48493289 heartbeat IPC: 0.32294 cumulative IPC: 0.30222 (Simulation time: 0 hr 6 min 19 sec) 
Heartbeat CPU  3 instructions:   67000000 cycles:   49613294 heartbeat IPC: 0.20031 cumulative IPC: 0.21139 (Simulation time: 0 hr 6 min 22 sec) 
Heartbeat CPU  1 instructions:   59000001 cycles:   52132796 heartbeat IPC: 0.22591 cumulative IPC: 0.32792 (Simulation time: 0 hr 6 min 28 sec) 
Heartbeat CPU  0 instructions:   64000000 cycles:   52155451 heartbeat IPC: 0.27306 cumulative IPC: 0.29833 (Simulation time: 0 hr 6 min 28 sec) 
Heartbeat CPU  2 instructions:   67000002 cycles:   52182609 heartbeat IPC: 0.18459 cumulative IPC: 0.22027 (Simulation time: 0 hr 6 min 28 sec) 
Heartbeat CPU  3 instructions:   68000000 cycles:   55741314 heartbeat IPC: 0.16318 cumulative IPC: 0.20188 (Simulation time: 0 hr 6 min 34 sec) 
Heartbeat CPU  1 instructions:   60000000 cycles:   56943101 heartbeat IPC: 0.20789 cumulative IPC: 0.31002 (Simulation time: 0 hr 6 min 36 sec) 
Heartbeat CPU  2 instructions:   68000000 cycles:   57055288 heartbeat IPC: 0.20523 cumulative IPC: 0.21800 (Simulation time: 0 hr 6 min 36 sec) 
Heartbeat CPU  0 instructions:   65000000 cycles:   57562298 heartbeat IPC: 0.18495 cumulative IPC: 0.27969 (Simulation time: 0 hr 6 min 37 sec) 
Heartbeat CPU  3 instructions:   69000000 cycles:   60951629 heartbeat IPC: 0.19193 cumulative IPC: 0.20045 (Simulation time: 0 hr 6 min 44 sec) 
Heartbeat CPU  0 instructions:   66000002 cycles:   61517326 heartbeat IPC: 0.25284 cumulative IPC: 0.27680 (Simulation time: 0 hr 6 min 46 sec) 
Heartbeat CPU  1 instructions:   61000003 cycles:   61605545 heartbeat IPC: 0.21448 cumulative IPC: 0.29795 (Simulation time: 0 hr 6 min 46 sec) 
Heartbeat CPU  2 instructions:   69000000 cycles:   62468973 heartbeat IPC: 0.18472 cumulative IPC: 0.21323 (Simulation time: 0 hr 6 min 48 sec) 
Heartbeat CPU  3 instructions:   70000000 cycles:   65670172 heartbeat IPC: 0.21193 cumulative IPC: 0.20177 (Simulation time: 0 hr 6 min 55 sec) 
Heartbeat CPU  1 instructions:   62000003 cycles:   65676660 heartbeat IPC: 0.24563 cumulative IPC: 0.29276 (Simulation time: 0 hr 6 min 55 sec) 
Heartbeat CPU  0 instructions:   67000001 cycles:   66496834 heartbeat IPC: 0.20082 cumulative IPC: 0.26775 (Simulation time: 0 hr 6 min 57 sec) 
Heartbeat CPU  1 instructions:   63000002 cycles:   69080378 heartbeat IPC: 0.29380 cumulative IPC: 0.29284 (Simulation time: 0 hr 7 min 2 sec) 
Heartbeat CPU  2 instructions:   70000000 cycles:   69578622 heartbeat IPC: 0.14065 cumulative IPC: 0.20174 (Simulation time: 0 hr 7 min 3 sec) 
Heartbeat CPU  0 instructions:   68000000 cycles:   70662563 heartbeat IPC: 0.24005 cumulative IPC: 0.26524 (Simulation time: 0 hr 7 min 4 sec) 
Heartbeat CPU  3 instructions:   71000000 cycles:   71331499 heartbeat IPC: 0.17664 cumulative IPC: 0.19872 (Simulation time: 0 hr 7 min 6 sec) 
Heartbeat CPU  2 instructions:   71000003 cycles:   74334972 heartbeat IPC: 0.21025 cumulative IPC: 0.20255 (Simulation time: 0 hr 7 min 11 sec) 
Heartbeat CPU  0 instructions:   69000002 cycles:   74605234 heartbeat IPC: 0.25364 cumulative IPC: 0.26433 (Simulation time: 0 hr 7 min 12 sec) 
Heartbeat CPU  1 instructions:   64000000 cycles:   76192464 heartbeat IPC: 0.14061 cumulative IPC: 0.27182 (Simulation time: 0 hr 7 min 15 sec) 
Heartbeat CPU  3 instructions:   72000000 cycles:   77307135 heartbeat IPC: 0.16735 cumulative IPC: 0.19516 (Simulation time: 0 hr 7 min 17 sec) 
Heartbeat CPU  2 instructions:   72000000 cycles:   79267608 heartbeat IPC: 0.20273 cumulative IPC: 0.20257 (Simulation time: 0 hr 7 min 20 sec) 
Heartbeat CPU  0 instructions:   70000002 cycles:   79954261 heartbeat IPC: 0.18695 cumulative IPC: 0.25684 (Simulation time: 0 hr 7 min 22 sec) 
Heartbeat CPU  1 instructions:   65000002 cycles:   82242452 heartbeat IPC: 0.16529 cumulative IPC: 0.26062 (Simulation time: 0 hr 7 min 25 sec) 
Heartbeat CPU  3 instructions:   73000000 cycles:   82849293 heartbeat IPC: 0.18044 cumulative IPC: 0.19376 (Simulation time: 0 hr 7 min 26 sec) 
Heartbeat CPU  2 instructions:   73000000 cycles:   83720815 heartbeat IPC: 0.22456 cumulative IPC: 0.20423 (Simulation time: 0 hr 7 min 28 sec) 
Heartbeat CPU  0 instructions:   71000003 cycles:   85985569 heartbeat IPC: 0.16580 cumulative IPC: 0.24788 (Simulation time: 0 hr 7 min 32 sec) 
Heartbeat CPU  1 instructions:   66000003 cycles:   87406509 heartbeat IPC: 0.19365 cumulative IPC: 0.25510 (Simulation time: 0 hr 7 min 34 sec) 
Heartbeat CPU  2 instructions:   74000003 cycles:   87670761 heartbeat IPC: 0.25317 cumulative IPC: 0.20730 (Simulation time: 0 hr 7 min 35 sec) 
Heartbeat CPU  3 instructions:   74000001 cycles:   88734772 heartbeat IPC: 0.16991 cumulative IPC: 0.19156 (Simulation time: 0 hr 7 min 37 sec) 
Heartbeat CPU  0 instructions:   72000000 cycles:   91708500 heartbeat IPC: 0.17474 cumulative IPC: 0.24164 (Simulation time: 0 hr 7 min 42 sec) 
Heartbeat CPU  2 instructions:   75000002 cycles:   91728850 heartbeat IPC: 0.24642 cumulative IPC: 0.20967 (Simulation time: 0 hr 7 min 42 sec) 
Heartbeat CPU  1 instructions:   67000002 cycles:   92790915 heartbeat IPC: 0.18572 cumulative IPC: 0.24962 (Simulation time: 0 hr 7 min 45 sec) 
Heartbeat CPU  3 instructions:   75000002 cycles:   93144234 heartbeat IPC: 0.22679 cumulative IPC: 0.19383 (Simulation time: 0 hr 7 min 45 sec) 
Heartbeat CPU  2 instructions:   76000000 cycles:   95065655 heartbeat IPC: 0.29969 cumulative IPC: 0.21393 (Simulation time: 0 hr 7 min 50 sec) 
Heartbeat CPU  3 instructions:   76000000 cycles:   95790428 heartbeat IPC: 0.37790 cumulative IPC: 0.20068 (Simulation time: 0 hr 7 min 52 sec) 
Heartbeat CPU  0 instructions:   73000001 cycles:   96209392 heartbeat IPC: 0.22218 cumulative IPC: 0.24041 (Simulation time: 0 hr 7 min 52 sec) 
Heartbeat CPU  1 instructions:   68000000 cycles:   97436002 heartbeat IPC: 0.21528 cumulative IPC: 0.24743 (Simulation time: 0 hr 7 min 55 sec) 
Heartbeat CPU  2 instructions:   77000000 cycles:   99055459 heartbeat IPC: 0.25064 cumulative IPC: 0.21590 (Simulation time: 0 hr 7 min 58 sec) 
Heartbeat CPU  3 instructions:   77000001 cycles:   99175554 heartbeat IPC: 0.29541 cumulative IPC: 0.20499 (Simulation time: 0 hr 7 min 58 sec) 
Heartbeat CPU  0 instructions:   74000001 cycles:  100964303 heartbeat IPC: 0.21031 cumulative IPC: 0.23853 (Simulation time: 0 hr 8 min 2 sec) 
Heartbeat CPU  2 instructions:   78000002 cycles:  103301271 heartbeat IPC: 0.23553 cumulative IPC: 0.21696 (Simulation time: 0 hr 8 min 6 sec) 
Heartbeat CPU  1 instructions:   69000000 cycles:  103529408 heartbeat IPC: 0.16411 cumulative IPC: 0.24099 (Simulation time: 0 hr 8 min 7 sec) 
Heartbeat CPU  3 instructions:   78000003 cycles:  103578541 heartbeat IPC: 0.22712 cumulative IPC: 0.20622 (Simulation time: 0 hr 8 min 7 sec) 
Heartbeat CPU  0 instructions:   75000001 cycles:  104335577 heartbeat IPC: 0.29662 cumulative IPC: 0.24099 (Simulation time: 0 hr 8 min 9 sec) 
Heartbeat CPU  2 instructions:   79000003 cycles:  104693557 heartbeat IPC: 0.71824 cumulative IPC: 0.22569 (Simulation time: 0 hr 8 min 10 sec) 
Heartbeat CPU  2 instructions:   80000000 cycles:  105351914 heartbeat IPC: 1.51893 cumulative IPC: 0.23624 (Simulation time: 0 hr 8 min 13 sec) 
Heartbeat CPU  3 instructions:   79000002 cycles:  105977360 heartbeat IPC: 0.41687 cumulative IPC: 0.21244 (Simulation time: 0 hr 8 min 16 sec) 
Heartbeat CPU  3 instructions:   80000000 cycles:  106634796 heartbeat IPC: 1.52106 cumulative IPC: 0.22294 (Simulation time: 0 hr 8 min 19 sec) 
Heartbeat CPU  0 instructions:   76000000 cycles:  107691061 heartbeat IPC: 0.29802 cumulative IPC: 0.24330 (Simulation time: 0 hr 8 min 21 sec) 
Heartbeat CPU  2 instructions:   81000002 cycles:  107925742 heartbeat IPC: 0.38853 cumulative IPC: 0.24095 (Simulation time: 0 hr 8 min 22 sec) 
Heartbeat CPU  1 instructions:   70000000 cycles:  109523556 heartbeat IPC: 0.16683 cumulative IPC: 0.23575 (Simulation time: 0 hr 8 min 26 sec) 
Heartbeat CPU  3 instructions:   81000002 cycles:  109739107 heartbeat IPC: 0.32213 cumulative IPC: 0.22656 (Simulation time: 0 hr 8 min 26 sec) 
Heartbeat CPU  2 instructions:   82000001 cycles:  111166896 heartbeat IPC: 0.30853 cumulative IPC: 0.24348 (Simulation time: 0 hr 8 min 30 sec) 
Heartbeat CPU  0 instructions:   77000001 cycles:  111678193 heartbeat IPC: 0.25081 cumulative IPC: 0.24364 (Simulation time: 0 hr 8 min 31 sec) 
Heartbeat CPU  3 instructions:   82000000 cycles:  112247160 heartbeat IPC: 0.39871 cumulative IPC: 0.23149 (Simulation time: 0 hr 8 min 32 sec) 
Heartbeat CPU  2 instructions:   83000000 cycles:  113693596 heartbeat IPC: 0.39577 cumulative IPC: 0.24781 (Simulation time: 0 hr 8 min 36 sec) 
Heartbeat CPU  3 instructions:   83000002 cycles:  114743222 heartbeat IPC: 0.40063 cumulative IPC: 0.23618 (Simulation time: 0 hr 8 min 39 sec) 
Heartbeat CPU  1 instructions:   71000002 cycles:  115410018 heartbeat IPC: 0.16988 cumulative IPC: 0.23147 (Simulation time: 0 hr 8 min 41 sec) 
Heartbeat CPU  0 instructions:   78000000 cycles:  115709514 heartbeat IPC: 0.24806 cumulative IPC: 0.24384 (Simulation time: 0 hr 8 min 41 sec) 
Heartbeat CPU  2 instructions:   84000000 cycles:  116197128 heartbeat IPC: 0.39944 cumulative IPC: 0.25195 (Simulation time: 0 hr 8 min 43 sec) 
Heartbeat CPU  0 instructions:   79000002 cycles:  117192809 heartbeat IPC: 0.67418 cumulative IPC: 0.25074 (Simulation time: 0 hr 8 min 45 sec) 
Heartbeat CPU  3 instructions:   84000000 cycles:  117699674 heartbeat IPC: 0.33824 cumulative IPC: 0.23942 (Simulation time: 0 hr 8 min 48 sec) 
Heartbeat CPU  0 instructions:   80000000 cycles:  117894171 heartbeat IPC: 1.42579 cumulative IPC: 0.25958 (Simulation time: 0 hr 8 min 49 sec) 
Heartbeat CPU  2 instructions:   85000000 cycles:  119039764 heartbeat IPC: 0.35179 cumulative IPC: 0.25496 (Simulation time: 0 hr 8 min 52 sec) 
Heartbeat CPU  3 instructions:   85000000 cycles:  120277113 heartbeat IPC: 0.38798 cumulative IPC: 0.24343 (Simulation time: 0 hr 8 min 55 sec) 
Heartbeat CPU  0 instructions:   81000002 cycles:  121033106 heartbeat IPC: 0.31858 cumulative IPC: 0.26150 (Simulation time: 0 hr 8 min 57 sec) 
Heartbeat CPU  2 instructions:   86000000 cycles:  121528380 heartbeat IPC: 0.40183 cumulative IPC: 0.25874 (Simulation time: 0 hr 8 min 58 sec) 
Heartbeat CPU  1 instructions:   72000000 cycles:  121802471 heartbeat IPC: 0.15643 cumulative IPC: 0.22653 (Simulation time: 0 hr 8 min 59 sec) 
Heartbeat CPU  3 instructions:   86000002 cycles:  122863366 heartbeat IPC: 0.38666 cumulative IPC: 0.24720 (Simulation time: 0 hr 9 min 2 sec) 
Heartbeat CPU  0 instructions:   82000000 cycles:  123729432 heartbeat IPC: 0.37087 cumulative IPC: 0.26448 (Simulation time: 0 hr 9 min 4 sec) 
Heartbeat CPU  2 instructions:   87000002 cycles:  124026010 heartbeat IPC: 0.40038 cumulative IPC: 0.26230 (Simulation time: 0 hr 9 min 5 sec) 
Heartbeat CPU  3 instructions:   87000002 cycles:  125425858 heartbeat IPC: 0.39025 cumulative IPC: 0.25084 (Simulation time: 0 hr 9 min 9 sec) 
Heartbeat CPU  2 instructions:   88000000 cycles:  126534880 heartbeat IPC: 0.39859 cumulative IPC: 0.26566 (Simulation time: 0 hr 9 min 12 sec) 
Heartbeat CPU  1 instructions:   73000001 cycles:  126971998 heartbeat IPC: 0.19344 cumulative IPC: 0.22486 (Simulation time: 0 hr 9 min 13 sec) 
Heartbeat CPU  0 instructions:   83000002 cycles:  127118485 heartbeat IPC: 0.29507 cumulative IPC: 0.26549 (Simulation time: 0 hr 9 min 13 sec) 
Heartbeat CPU  3 instructions:   88000000 cycles:  127957562 heartbeat IPC: 0.39499 cumulative IPC: 0.25437 (Simulation time: 0 hr 9 min 16 sec) 
Heartbeat CPU  2 instructions:   89000002 cycles:  129494669 heartbeat IPC: 0.33786 cumulative IPC: 0.26769 (Simulation time: 0 hr 9 min 20 sec) 
Heartbeat CPU  0 instructions:   84000000 cycles:  130546242 heartbeat IPC: 0.29174 cumulative IPC: 0.26634 (Simulation time: 0 hr 9 min 22 sec) 
Heartbeat CPU  3 instructions:   89000001 cycles:  130754458 heartbeat IPC: 0.35754 cumulative IPC: 0.25709 (Simulation time: 0 hr 9 min 23 sec) 
Heartbeat CPU  1 instructions:   74000002 cycles:  131610520 heartbeat IPC: 0.21559 cumulative IPC: 0.22446 (Simulation time: 0 hr 9 min 25 sec) 
Heartbeat CPU  2 instructions:   90000000 cycles:  131893014 heartbeat IPC: 0.41695 cumulative IPC: 0.27103 (Simulation time: 0 hr 9 min 26 sec) 
Heartbeat CPU  3 instructions:   90000002 cycles:  133468047 heartbeat IPC: 0.36852 cumulative IPC: 0.25987 (Simulation time: 0 hr 9 min 30 sec) 
Heartbeat CPU  2 instructions:   91000003 cycles:  134305909 heartbeat IPC: 0.41444 cumulative IPC: 0.27419 (Simulation time: 0 hr 9 min 33 sec) 
Heartbeat CPU  0 instructions:   85000000 cycles:  134428544 heartbeat IPC: 0.25758 cumulative IPC: 0.26603 (Simulation time: 0 hr 9 min 33 sec) 
Heartbeat CPU  1 instructions:   75000003 cycles:  134872932 heartbeat IPC: 0.30652 cumulative IPC: 0.22689 (Simulation time: 0 hr 9 min 34 sec) 
Heartbeat CPU  3 instructions:   91000003 cycles:  135966939 heartbeat IPC: 0.40018 cumulative IPC: 0.26302 (Simulation time: 0 hr 9 min 38 sec) 
Heartbeat CPU  2 instructions:   92000000 cycles:  136868442 heartbeat IPC: 0.39024 cumulative IPC: 0.27684 (Simulation time: 0 hr 9 min 40 sec) 
Heartbeat CPU  0 instructions:   86000000 cycles:  137070777 heartbeat IPC: 0.37847 cumulative IPC: 0.26868 (Simulation time: 0 hr 9 min 41 sec) 
Heartbeat CPU  1 instructions:   76000000 cycles:  138458470 heartbeat IPC: 0.27890 cumulative IPC: 0.22853 (Simulation time: 0 hr 9 min 45 sec) 
Heartbeat CPU  3 instructions:   92000000 cycles:  138735224 heartbeat IPC: 0.36123 cumulative IPC: 0.26541 (Simulation time: 0 hr 9 min 46 sec) 
Heartbeat CPU  0 instructions:   87000003 cycles:  139585150 heartbeat IPC: 0.39771 cumulative IPC: 0.27150 (Simulation time: 0 hr 9 min 48 sec) 
Heartbeat CPU  2 instructions:   93000001 cycles:  139650102 heartbeat IPC: 0.35950 cumulative IPC: 0.27884 (Simulation time: 0 hr 9 min 48 sec) 
Heartbeat CPU  3 instructions:   93000001 cycles:  141164981 heartbeat IPC: 0.41156 cumulative IPC: 0.26846 (Simulation time: 0 hr 9 min 52 sec) 
Heartbeat CPU  2 instructions:   94000003 cycles:  142159329 heartbeat IPC: 0.39853 cumulative IPC: 0.28140 (Simulation time: 0 hr 9 min 55 sec) 
Heartbeat CPU  0 instructions:   88000000 cycles:  142629320 heartbeat IPC: 0.32850 cumulative IPC: 0.27297 (Simulation time: 0 hr 9 min 56 sec) 
Heartbeat CPU  1 instructions:   77000002 cycles:  142759608 heartbeat IPC: 0.23250 cumulative IPC: 0.22867 (Simulation time: 0 hr 9 min 57 sec) 
Heartbeat CPU  3 instructions:   94000003 cycles:  143754888 heartbeat IPC: 0.38612 cumulative IPC: 0.27102 (Simulation time: 0 hr 9 min 59 sec) 
Heartbeat CPU  2 instructions:   95000003 cycles:  144490330 heartbeat IPC: 0.42900 cumulative IPC: 0.28427 (Simulation time: 0 hr 10 min 1 sec) 
Heartbeat CPU  0 instructions:   89000000 cycles:  145662440 heartbeat IPC: 0.32969 cumulative IPC: 0.27439 (Simulation time: 0 hr 10 min 5 sec) 
Heartbeat CPU  3 instructions:   95000000 cycles:  146517608 heartbeat IPC: 0.36196 cumulative IPC: 0.27308 (Simulation time: 0 hr 10 min 7 sec) 
Heartbeat CPU  2 instructions:   96000000 cycles:  146651887 heartbeat IPC: 0.46263 cumulative IPC: 0.28743 (Simulation time: 0 hr 10 min 8 sec) 
Heartbeat CPU  1 instructions:   78000000 cycles:  147060668 heartbeat IPC: 0.23250 cumulative IPC: 0.22881 (Simulation time: 0 hr 10 min 9 sec) 
Heartbeat CPU  0 instructions:   90000002 cycles:  148215491 heartbeat IPC: 0.39169 cumulative IPC: 0.27682 (Simulation time: 0 hr 10 min 12 sec) 
Heartbeat CPU  2 instructions:   97000001 cycles:  149085606 heartbeat IPC: 0.41089 cumulative IPC: 0.28985 (Simulation time: 0 hr 10 min 16 sec) 
Heartbeat CPU  3 instructions:   96000000 cycles:  149162062 heartbeat IPC: 0.37815 cumulative IPC: 0.27531 (Simulation time: 0 hr 10 min 16 sec) 
Heartbeat CPU  1 instructions:   79000003 cycles:  149282058 heartbeat IPC: 0.45017 cumulative IPC: 0.23275 (Simulation time: 0 hr 10 min 16 sec) 
Heartbeat CPU  0 instructions:   91000003 cycles:  150892547 heartbeat IPC: 0.37355 cumulative IPC: 0.27887 (Simulation time: 0 hr 10 min 23 sec) 
Heartbeat CPU  2 instructions:   98000001 cycles:  151639108 heartbeat IPC: 0.39162 cumulative IPC: 0.29189 (Simulation time: 0 hr 10 min 25 sec) 
Heartbeat CPU  3 instructions:   97000003 cycles:  151932818 heartbeat IPC: 0.36091 cumulative IPC: 0.27717 (Simulation time: 0 hr 10 min 26 sec) 
Heartbeat CPU  1 instructions:   80000000 cycles:  152393110 heartbeat IPC: 0.32143 cumulative IPC: 0.23491 (Simulation time: 0 hr 10 min 27 sec) 
Heartbeat CPU  0 instructions:   92000000 cycles:  154374632 heartbeat IPC: 0.28718 cumulative IPC: 0.27909 (Simulation time: 0 hr 10 min 33 sec) 
Heartbeat CPU  3 instructions:   98000003 cycles:  154435596 heartbeat IPC: 0.39956 cumulative IPC: 0.27954 (Simulation time: 0 hr 10 min 33 sec) 
Heartbeat CPU  2 instructions:   99000002 cycles:  154938526 heartbeat IPC: 0.30308 cumulative IPC: 0.29218 (Simulation time: 0 hr 10 min 35 sec) 
Heartbeat CPU  1 instructions:   81000002 cycles:  155724377 heartbeat IPC: 0.30019 cumulative IPC: 0.23657 (Simulation time: 0 hr 10 min 38 sec) 
Heartbeat CPU  0 instructions:   93000003 cycles:  156997528 heartbeat IPC: 0.38126 cumulative IPC: 0.28112 (Simulation time: 0 hr 10 min 41 sec) 
Heartbeat CPU  3 instructions:   99000000 cycles:  157040907 heartbeat IPC: 0.38383 cumulative IPC: 0.28159 (Simulation time: 0 hr 10 min 42 sec) 
*** Reached end of trace for Core: 2 Repeating trace: /pref/Pythia/CASSANDRA/traces/cassandra_phase4_core2.trace.xz
Heartbeat CPU  2 instructions:  100000000 cycles:  157394134 heartbeat IPC: 0.40723 cumulative IPC: 0.29431 (Simulation time: 0 hr 10 min 43 sec) 
Heartbeat CPU  1 instructions:   82000002 cycles:  158236572 heartbeat IPC: 0.39806 cumulative IPC: 0.23961 (Simulation time: 0 hr 10 min 46 sec) 
*** Reached end of trace for Core: 3 Repeating trace: /pref/Pythia/CASSANDRA/traces/cassandra_phase4_core3.trace.xz
Heartbeat CPU  3 instructions:  100000000 cycles:  159279773 heartbeat IPC: 0.44665 cumulative IPC: 0.28433 (Simulation time: 0 hr 10 min 49 sec) 
Heartbeat CPU  2 instructions:  101000001 cycles:  159767293 heartbeat IPC: 0.42138 cumulative IPC: 0.29654 (Simulation time: 0 hr 10 min 50 sec) 
Heartbeat CPU  0 instructions:   94000003 cycles:  159916640 heartbeat IPC: 0.34257 cumulative IPC: 0.28244 (Simulation time: 0 hr 10 min 51 sec) 
Heartbeat CPU  1 instructions:   83000001 cycles:  160922736 heartbeat IPC: 0.37228 cumulative IPC: 0.24223 (Simulation time: 0 hr 10 min 54 sec) 
Heartbeat CPU  3 instructions:  101000002 cycles:  161761925 heartbeat IPC: 0.40288 cumulative IPC: 0.28648 (Simulation time: 0 hr 10 min 56 sec) 
Heartbeat CPU  2 instructions:  102000003 cycles:  161941033 heartbeat IPC: 0.46004 cumulative IPC: 0.29913 (Simulation time: 0 hr 10 min 57 sec) 
Heartbeat CPU  0 instructions:   95000001 cycles:  163468503 heartbeat IPC: 0.28154 cumulative IPC: 0.28242 (Simulation time: 0 hr 11 min 1 sec) 
Heartbeat CPU  1 instructions:   84000000 cycles:  163559430 heartbeat IPC: 0.37926 cumulative IPC: 0.24483 (Simulation time: 0 hr 11 min 2 sec) 
Heartbeat CPU  3 instructions:  102000003 cycles:  163943137 heartbeat IPC: 0.45846 cumulative IPC: 0.28917 (Simulation time: 0 hr 11 min 3 sec) 
Heartbeat CPU  2 instructions:  103000001 cycles:  165577221 heartbeat IPC: 0.27501 cumulative IPC: 0.29850 (Simulation time: 0 hr 11 min 8 sec) 
Heartbeat CPU  0 instructions:   96000000 cycles:  166019536 heartbeat IPC: 0.39200 cumulative IPC: 0.28440 (Simulation time: 0 hr 11 min 9 sec) 
Heartbeat CPU  3 instructions:  103000000 cycles:  166200654 heartbeat IPC: 0.44296 cumulative IPC: 0.29163 (Simulation time: 0 hr 11 min 10 sec) 
Heartbeat CPU  1 instructions:   85000001 cycles:  167036972 heartbeat IPC: 0.28756 cumulative IPC: 0.24587 (Simulation time: 0 hr 11 min 12 sec) 
Heartbeat CPU  2 instructions:  104000000 cycles:  168348695 heartbeat IPC: 0.36082 cumulative IPC: 0.29971 (Simulation time: 0 hr 11 min 16 sec) 
Heartbeat CPU  0 instructions:   97000002 cycles:  168491818 heartbeat IPC: 0.40449 cumulative IPC: 0.28646 (Simulation time: 0 hr 11 min 16 sec) 
Heartbeat CPU  3 instructions:  104000000 cycles:  168741878 heartbeat IPC: 0.39351 cumulative IPC: 0.29342 (Simulation time: 0 hr 11 min 17 sec) 
Heartbeat CPU  1 instructions:   86000000 cycles:  169850951 heartbeat IPC: 0.35537 cumulative IPC: 0.24800 (Simulation time: 0 hr 11 min 20 sec) 
Heartbeat CPU  2 instructions:  105000001 cycles:  170702682 heartbeat IPC: 0.42481 cumulative IPC: 0.30172 (Simulation time: 0 hr 11 min 23 sec) 
Heartbeat CPU  0 instructions:   98000003 cycles:  170933902 heartbeat IPC: 0.40949 cumulative IPC: 0.28852 (Simulation time: 0 hr 11 min 24 sec) 
Heartbeat CPU  3 instructions:  105000001 cycles:  171964859 heartbeat IPC: 0.31027 cumulative IPC: 0.29379 (Simulation time: 0 hr 11 min 27 sec) 
Heartbeat CPU  1 instructions:   87000001 cycles:  172495213 heartbeat IPC: 0.37818 cumulative IPC: 0.25032 (Simulation time: 0 hr 11 min 29 sec) 
Heartbeat CPU  2 instructions:  106000000 cycles:  172976841 heartbeat IPC: 0.43972 cumulative IPC: 0.30384 (Simulation time: 0 hr 11 min 30 sec) 
Heartbeat CPU  0 instructions:   99000000 cycles:  173459434 heartbeat IPC: 0.39595 cumulative IPC: 0.29034 (Simulation time: 0 hr 11 min 32 sec) 
Heartbeat CPU  3 instructions:  106000002 cycles:  174298996 heartbeat IPC: 0.42842 cumulative IPC: 0.29589 (Simulation time: 0 hr 11 min 34 sec) 
Heartbeat CPU  1 instructions:   88000000 cycles:  175395061 heartbeat IPC: 0.34485 cumulative IPC: 0.25214 (Simulation time: 0 hr 11 min 38 sec) 
Heartbeat CPU  2 instructions:  107000000 cycles:  175404000 heartbeat IPC: 0.41200 cumulative IPC: 0.30558 (Simulation time: 0 hr 11 min 38 sec) 
*** Reached end of trace for Core: 0 Repeating trace: /pref/Pythia/CASSANDRA/traces/cassandra_phase4_core0.trace.xz
Heartbeat CPU  0 instructions:  100000000 cycles:  176018148 heartbeat IPC: 0.39082 cumulative IPC: 0.29204 (Simulation time: 0 hr 11 min 40 sec) 
Heartbeat CPU  3 instructions:  107000001 cycles:  176776548 heartbeat IPC: 0.40362 cumulative IPC: 0.29765 (Simulation time: 0 hr 11 min 42 sec) 
Heartbeat CPU  2 instructions:  108000000 cycles:  177807931 heartbeat IPC: 0.41599 cumulative IPC: 0.30732 (Simulation time: 0 hr 11 min 45 sec) 
Heartbeat CPU  1 instructions:   89000002 cycles:  178583897 heartbeat IPC: 0.31359 cumulative IPC: 0.25342 (Simulation time: 0 hr 11 min 47 sec) 
Heartbeat CPU  0 instructions:  101000003 cycles:  179178213 heartbeat IPC: 0.31645 cumulative IPC: 0.29254 (Simulation time: 0 hr 11 min 49 sec) 
Heartbeat CPU  3 instructions:  108000000 cycles:  179642492 heartbeat IPC: 0.34892 cumulative IPC: 0.29860 (Simulation time: 0 hr 11 min 50 sec) 
Heartbeat CPU  2 instructions:  109000000 cycles:  180499920 heartbeat IPC: 0.37147 cumulative IPC: 0.30842 (Simulation time: 0 hr 11 min 53 sec) 
Heartbeat CPU  1 instructions:   90000003 cycles:  181081037 heartbeat IPC: 0.40046 cumulative IPC: 0.25576 (Simulation time: 0 hr 11 min 54 sec) 
Heartbeat CPU  3 instructions:  109000002 cycles:  182159048 heartbeat IPC: 0.39737 cumulative IPC: 0.30018 (Simulation time: 0 hr 11 min 58 sec) 
Heartbeat CPU  0 instructions:  102000001 cycles:  182282780 heartbeat IPC: 0.32211 cumulative IPC: 0.29312 (Simulation time: 0 hr 11 min 58 sec) 
Heartbeat CPU  2 instructions:  110000000 cycles:  182943056 heartbeat IPC: 0.40931 cumulative IPC: 0.30998 (Simulation time: 0 hr 12 min 0 sec) 
Heartbeat CPU  1 instructions:   91000003 cycles:  183562365 heartbeat IPC: 0.40301 cumulative IPC: 0.25806 (Simulation time: 0 hr 12 min 2 sec) 
Heartbeat CPU  0 instructions:  103000002 cycles:  184679071 heartbeat IPC: 0.41731 cumulative IPC: 0.29498 (Simulation time: 0 hr 12 min 5 sec) 
Heartbeat CPU  3 instructions:  110000000 cycles:  184864816 heartbeat IPC: 0.36958 cumulative IPC: 0.30135 (Simulation time: 0 hr 12 min 6 sec) 
Heartbeat CPU  2 instructions:  111000001 cycles:  186048108 heartbeat IPC: 0.32206 cumulative IPC: 0.31021 (Simulation time: 0 hr 12 min 9 sec) 
Heartbeat CPU  1 instructions:   92000000 cycles:  186133165 heartbeat IPC: 0.38898 cumulative IPC: 0.26015 (Simulation time: 0 hr 12 min 10 sec) 
Heartbeat CPU  0 instructions:  104000000 cycles:  187079094 heartbeat IPC: 0.41666 cumulative IPC: 0.29678 (Simulation time: 0 hr 12 min 13 sec) 
Heartbeat CPU  3 instructions:  111000003 cycles:  187326293 heartbeat IPC: 0.40626 cumulative IPC: 0.30294 (Simulation time: 0 hr 12 min 13 sec) 
Heartbeat CPU  2 instructions:  112000000 cycles:  188528408 heartbeat IPC: 0.40318 cumulative IPC: 0.31162 (Simulation time: 0 hr 12 min 17 sec) 
Heartbeat CPU  1 instructions:   93000001 cycles:  188551451 heartbeat IPC: 0.41352 cumulative IPC: 0.26241 (Simulation time: 0 hr 12 min 17 sec) 
Heartbeat CPU  0 instructions:  105000001 cycles:  189525148 heartbeat IPC: 0.40882 cumulative IPC: 0.29844 (Simulation time: 0 hr 12 min 20 sec) 
Heartbeat CPU  3 instructions:  112000000 cycles:  189819400 heartbeat IPC: 0.40110 cumulative IPC: 0.30442 (Simulation time: 0 hr 12 min 21 sec) 
Heartbeat CPU  2 instructions:  113000003 cycles:  191198272 heartbeat IPC: 0.37455 cumulative IPC: 0.31263 (Simulation time: 0 hr 12 min 25 sec) 
Heartbeat CPU  1 instructions:   94000001 cycles:  191260537 heartbeat IPC: 0.36913 cumulative IPC: 0.26415 (Simulation time: 0 hr 12 min 26 sec) 
Heartbeat CPU  0 instructions:  106000001 cycles:  192220344 heartbeat IPC: 0.37103 cumulative IPC: 0.29961 (Simulation time: 0 hr 12 min 28 sec) 
Heartbeat CPU  3 instructions:  113000002 cycles:  192320720 heartbeat IPC: 0.39979 cumulative IPC: 0.30584 (Simulation time: 0 hr 12 min 29 sec) 
Heartbeat CPU  2 instructions:  114000002 cycles:  193771889 heartbeat IPC: 0.38856 cumulative IPC: 0.31379 (Simulation time: 0 hr 12 min 33 sec) 
Heartbeat CPU  1 instructions:   95000001 cycles:  194379363 heartbeat IPC: 0.32063 cumulative IPC: 0.26519 (Simulation time: 0 hr 12 min 35 sec) 
Heartbeat CPU  3 instructions:  114000003 cycles:  195033666 heartbeat IPC: 0.36860 cumulative IPC: 0.30684 (Simulation time: 0 hr 12 min 36 sec) 
Heartbeat CPU  0 instructions:  107000000 cycles:  195823823 heartbeat IPC: 0.27751 cumulative IPC: 0.29915 (Simulation time: 0 hr 12 min 38 sec) 
Heartbeat CPU  2 instructions:  115000001 cycles:  196190249 heartbeat IPC: 0.41350 cumulative IPC: 0.31519 (Simulation time: 0 hr 12 min 40 sec) 
Heartbeat CPU  1 instructions:   96000000 cycles:  196698212 heartbeat IPC: 0.43125 cumulative IPC: 0.26742 (Simulation time: 0 hr 12 min 42 sec) 
Heartbeat CPU  3 instructions:  115000000 cycles:  198019040 heartbeat IPC: 0.33497 cumulative IPC: 0.30733 (Simulation time: 0 hr 12 min 46 sec) 
Heartbeat CPU  0 instructions:  108000000 cycles:  198679146 heartbeat IPC: 0.35022 cumulative IPC: 0.29998 (Simulation time: 0 hr 12 min 48 sec) 
Heartbeat CPU  1 instructions:   97000002 cycles:  199123581 heartbeat IPC: 0.41231 cumulative IPC: 0.26944 (Simulation time: 0 hr 12 min 49 sec) 
Heartbeat CPU  2 instructions:  116000000 cycles:  199385067 heartbeat IPC: 0.31301 cumulative IPC: 0.31515 (Simulation time: 0 hr 12 min 50 sec) 
Heartbeat CPU  3 instructions:  116000000 cycles:  200560808 heartbeat IPC: 0.39343 cumulative IPC: 0.30857 (Simulation time: 0 hr 12 min 54 sec) 
Heartbeat CPU  1 instructions:   98000002 cycles:  201506088 heartbeat IPC: 0.41973 cumulative IPC: 0.27146 (Simulation time: 0 hr 12 min 57 sec) 
Heartbeat CPU  0 instructions:  109000002 cycles:  201737808 heartbeat IPC: 0.32694 cumulative IPC: 0.30045 (Simulation time: 0 hr 12 min 57 sec) 
Heartbeat CPU  2 instructions:  117000000 cycles:  202132924 heartbeat IPC: 0.36392 cumulative IPC: 0.31591 (Simulation time: 0 hr 12 min 59 sec) 
Heartbeat CPU  3 instructions:  117000001 cycles:  202854013 heartbeat IPC: 0.43607 cumulative IPC: 0.31021 (Simulation time: 0 hr 13 min 1 sec) 
Heartbeat CPU  1 instructions:   99000002 cycles:  203891368 heartbeat IPC: 0.41924 cumulative IPC: 0.27343 (Simulation time: 0 hr 13 min 4 sec) 
Heartbeat CPU  2 instructions:  118000000 cycles:  204511667 heartbeat IPC: 0.42039 cumulative IPC: 0.31729 (Simulation time: 0 hr 13 min 6 sec) 
Heartbeat CPU  0 instructions:  110000000 cycles:  204758742 heartbeat IPC: 0.33102 cumulative IPC: 0.30096 (Simulation time: 0 hr 13 min 7 sec) 
Heartbeat CPU  3 instructions:  118000002 cycles:  205955693 heartbeat IPC: 0.32241 cumulative IPC: 0.31042 (Simulation time: 0 hr 13 min 10 sec) 
*** Reached end of trace for Core: 1 Repeating trace: /pref/Pythia/CASSANDRA/traces/cassandra_phase4_core1.trace.xz
Heartbeat CPU  1 instructions:  100000000 cycles:  206475449 heartbeat IPC: 0.38698 cumulative IPC: 0.27504 (Simulation time: 0 hr 13 min 12 sec) 
Heartbeat CPU  2 instructions:  119000003 cycles:  206806951 heartbeat IPC: 0.43568 cumulative IPC: 0.31878 (Simulation time: 0 hr 13 min 13 sec) 
Heartbeat CPU  0 instructions:  111000000 cycles:  207251338 heartbeat IPC: 0.40119 cumulative IPC: 0.30233 (Simulation time: 0 hr 13 min 14 sec) 
Heartbeat CPU  1 instructions:  101000000 cycles:  208757573 heartbeat IPC: 0.43819 cumulative IPC: 0.27707 (Simulation time: 0 hr 13 min 19 sec) 
Heartbeat CPU  3 instructions:  119000003 cycles:  208788525 heartbeat IPC: 0.35300 cumulative IPC: 0.31107 (Simulation time: 0 hr 13 min 20 sec) 
Heartbeat CPU  2 instructions:  120000000 cycles:  208855843 heartbeat IPC: 0.48807 cumulative IPC: 0.32066 (Simulation time: 0 hr 13 min 20 sec) 
Heartbeat CPU  0 instructions:  112000000 cycles:  209722930 heartbeat IPC: 0.40460 cumulative IPC: 0.30370 (Simulation time: 0 hr 13 min 23 sec) 
Heartbeat CPU  1 instructions:  102000003 cycles:  210663461 heartbeat IPC: 0.52469 cumulative IPC: 0.27961 (Simulation time: 0 hr 13 min 26 sec) 
Heartbeat CPU  2 instructions:  121000003 cycles:  211170278 heartbeat IPC: 0.43207 cumulative IPC: 0.32205 (Simulation time: 0 hr 13 min 27 sec) 
Heartbeat CPU  3 instructions:  120000000 cycles:  211587989 heartbeat IPC: 0.35721 cumulative IPC: 0.31177 (Simulation time: 0 hr 13 min 29 sec) 
Heartbeat CPU  0 instructions:  113000002 cycles:  212205833 heartbeat IPC: 0.40276 cumulative IPC: 0.30501 (Simulation time: 0 hr 13 min 31 sec) 
Heartbeat CPU  2 instructions:  122000001 cycles:  213233084 heartbeat IPC: 0.48478 cumulative IPC: 0.32383 (Simulation time: 0 hr 13 min 34 sec) 
Heartbeat CPU  1 instructions:  103000001 cycles:  213571997 heartbeat IPC: 0.34381 cumulative IPC: 0.28059 (Simulation time: 0 hr 13 min 35 sec) 
Heartbeat CPU  3 instructions:  121000000 cycles:  214091032 heartbeat IPC: 0.39951 cumulative IPC: 0.31293 (Simulation time: 0 hr 13 min 37 sec) 
Heartbeat CPU  0 instructions:  114000000 cycles:  215359304 heartbeat IPC: 0.31711 cumulative IPC: 0.30521 (Simulation time: 0 hr 13 min 40 sec) 
Heartbeat CPU  2 instructions:  123000001 cycles:  215583656 heartbeat IPC: 0.42543 cumulative IPC: 0.32508 (Simulation time: 0 hr 13 min 41 sec) 
Heartbeat CPU  1 instructions:  104000000 cycles:  216168083 heartbeat IPC: 0.38519 cumulative IPC: 0.28201 (Simulation time: 0 hr 13 min 43 sec) 
Heartbeat CPU  3 instructions:  122000000 cycles:  216725228 heartbeat IPC: 0.37962 cumulative IPC: 0.31384 (Simulation time: 0 hr 13 min 45 sec) 
Heartbeat CPU  0 instructions:  115000002 cycles:  218174295 heartbeat IPC: 0.35524 cumulative IPC: 0.30594 (Simulation time: 0 hr 13 min 50 sec) 
Heartbeat CPU  2 instructions:  124000000 cycles:  218630310 heartbeat IPC: 0.32823 cumulative IPC: 0.32513 (Simulation time: 0 hr 13 min 51 sec) 
Heartbeat CPU  1 instructions:  105000003 cycles:  218766493 heartbeat IPC: 0.38485 cumulative IPC: 0.28339 (Simulation time: 0 hr 13 min 52 sec) 
Heartbeat CPU  3 instructions:  123000002 cycles:  219057601 heartbeat IPC: 0.42875 cumulative IPC: 0.31522 (Simulation time: 0 hr 13 min 53 sec) 
Heartbeat CPU  0 instructions:  116000000 cycles:  220660894 heartbeat IPC: 0.40215 cumulative IPC: 0.30716 (Simulation time: 0 hr 13 min 57 sec) 
Heartbeat CPU  2 instructions:  125000001 cycles:  221053269 heartbeat IPC: 0.41272 cumulative IPC: 0.32621 (Simulation time: 0 hr 13 min 59 sec) 
Heartbeat CPU  1 instructions:  106000000 cycles:  221319576 heartbeat IPC: 0.39168 cumulative IPC: 0.28479 (Simulation time: 0 hr 14 min 0 sec) 
Heartbeat CPU  3 instructions:  124000000 cycles:  221503949 heartbeat IPC: 0.40877 cumulative IPC: 0.31638 (Simulation time: 0 hr 14 min 0 sec) 
Heartbeat CPU  0 instructions:  117000002 cycles:  223146880 heartbeat IPC: 0.40226 cumulative IPC: 0.30835 (Simulation time: 0 hr 14 min 5 sec) 
Heartbeat CPU  2 instructions:  126000001 cycles:  223590400 heartbeat IPC: 0.39415 cumulative IPC: 0.32708 (Simulation time: 0 hr 14 min 7 sec) 
Heartbeat CPU  1 instructions:  107000002 cycles:  224086532 heartbeat IPC: 0.36141 cumulative IPC: 0.28586 (Simulation time: 0 hr 14 min 8 sec) 
Heartbeat CPU  3 instructions:  125000000 cycles:  224574317 heartbeat IPC: 0.32569 cumulative IPC: 0.31652 (Simulation time: 0 hr 14 min 10 sec) 
Heartbeat CPU  2 instructions:  127000000 cycles:  226329403 heartbeat IPC: 0.36510 cumulative IPC: 0.32759 (Simulation time: 0 hr 14 min 14 sec) 
Heartbeat CPU  0 instructions:  118000003 cycles:  226757491 heartbeat IPC: 0.27696 cumulative IPC: 0.30779 (Simulation time: 0 hr 14 min 15 sec) 
Heartbeat CPU  1 instructions:  108000000 cycles:  226941457 heartbeat IPC: 0.35027 cumulative IPC: 0.28677 (Simulation time: 0 hr 14 min 16 sec) 
Heartbeat CPU  3 instructions:  126000000 cycles:  227255163 heartbeat IPC: 0.37302 cumulative IPC: 0.31727 (Simulation time: 0 hr 14 min 17 sec) 
Heartbeat CPU  2 instructions:  128000000 cycles:  229052352 heartbeat IPC: 0.36725 cumulative IPC: 0.32812 (Simulation time: 0 hr 14 min 22 sec) 
Heartbeat CPU  1 instructions:  109000000 cycles:  229299559 heartbeat IPC: 0.42407 cumulative IPC: 0.28835 (Simulation time: 0 hr 14 min 23 sec) 
Heartbeat CPU  3 instructions:  127000003 cycles:  229902346 heartbeat IPC: 0.37776 cumulative IPC: 0.31805 (Simulation time: 0 hr 14 min 25 sec) 
Heartbeat CPU  0 instructions:  119000000 cycles:  229978483 heartbeat IPC: 0.31046 cumulative IPC: 0.30783 (Simulation time: 0 hr 14 min 25 sec) 
Heartbeat CPU  1 instructions:  110000001 cycles:  231429885 heartbeat IPC: 0.46941 cumulative IPC: 0.29022 (Simulation time: 0 hr 14 min 30 sec) 
Heartbeat CPU  2 instructions:  129000001 cycles:  231498239 heartbeat IPC: 0.40885 cumulative IPC: 0.32907 (Simulation time: 0 hr 14 min 30 sec) 
Heartbeat CPU  3 instructions:  128000000 cycles:  232212416 heartbeat IPC: 0.43289 cumulative IPC: 0.31933 (Simulation time: 0 hr 14 min 32 sec) 
Heartbeat CPU  0 instructions:  120000000 cycles:  232832027 heartbeat IPC: 0.35044 cumulative IPC: 0.30841 (Simulation time: 0 hr 14 min 34 sec) 
Heartbeat CPU  1 instructions:  111000003 cycles:  233765699 heartbeat IPC: 0.42812 cumulative IPC: 0.29176 (Simulation time: 0 hr 14 min 37 sec) 
Heartbeat CPU  2 instructions:  130000001 cycles:  233927612 heartbeat IPC: 0.41163 cumulative IPC: 0.33003 (Simulation time: 0 hr 14 min 38 sec) 
Heartbeat CPU  3 instructions:  129000002 cycles:  234950570 heartbeat IPC: 0.36521 cumulative IPC: 0.31993 (Simulation time: 0 hr 14 min 41 sec) 
Heartbeat CPU  0 instructions:  121000001 cycles:  235930578 heartbeat IPC: 0.32273 cumulative IPC: 0.30862 (Simulation time: 0 hr 14 min 44 sec) 
Heartbeat CPU  1 instructions:  112000000 cycles:  236124347 heartbeat IPC: 0.42397 cumulative IPC: 0.29323 (Simulation time: 0 hr 14 min 45 sec) 
Heartbeat CPU  2 instructions:  131000000 cycles:  236357264 heartbeat IPC: 0.41158 cumulative IPC: 0.33097 (Simulation time: 0 hr 14 min 45 sec) 
Heartbeat CPU  3 instructions:  130000000 cycles:  237868742 heartbeat IPC: 0.34268 cumulative IPC: 0.32024 (Simulation time: 0 hr 14 min 50 sec) 
Heartbeat CPU  1 instructions:  113000003 cycles:  238493155 heartbeat IPC: 0.42215 cumulative IPC: 0.29466 (Simulation time: 0 hr 14 min 52 sec) 
Heartbeat CPU  2 instructions:  132000000 cycles:  238988826 heartbeat IPC: 0.38000 cumulative IPC: 0.33157 (Simulation time: 0 hr 14 min 53 sec) 
Heartbeat CPU  0 instructions:  122000002 cycles:  239315394 heartbeat IPC: 0.29544 cumulative IPC: 0.30842 (Simulation time: 0 hr 14 min 54 sec) 
Heartbeat CPU  3 instructions:  131000002 cycles:  240398767 heartbeat IPC: 0.39525 cumulative IPC: 0.32112 (Simulation time: 0 hr 14 min 58 sec) 
Heartbeat CPU  1 instructions:  114000003 cycles:  241040862 heartbeat IPC: 0.39251 cumulative IPC: 0.29581 (Simulation time: 0 hr 15 min 0 sec) 
Heartbeat CPU  2 instructions:  133000000 cycles:  241463069 heartbeat IPC: 0.40416 cumulative IPC: 0.33240 (Simulation time: 0 hr 15 min 1 sec) 
Heartbeat CPU  0 instructions:  123000000 cycles:  241796983 heartbeat IPC: 0.40297 cumulative IPC: 0.30950 (Simulation time: 0 hr 15 min 2 sec) 
Heartbeat CPU  3 instructions:  132000000 cycles:  242903304 heartbeat IPC: 0.39927 cumulative IPC: 0.32202 (Simulation time: 0 hr 15 min 6 sec) 
Heartbeat CPU  1 instructions:  115000001 cycles:  243154465 heartbeat IPC: 0.47312 cumulative IPC: 0.29753 (Simulation time: 0 hr 15 min 7 sec) 
Heartbeat CPU  2 instructions:  134000003 cycles:  243794794 heartbeat IPC: 0.42887 cumulative IPC: 0.33343 (Simulation time: 0 hr 15 min 9 sec) 
Heartbeat CPU  0 instructions:  124000000 cycles:  244254503 heartbeat IPC: 0.40691 cumulative IPC: 0.31059 (Simulation time: 0 hr 15 min 10 sec) 
Heartbeat CPU  1 instructions:  116000000 cycles:  245350647 heartbeat IPC: 0.45534 cumulative IPC: 0.29910 (Simulation time: 0 hr 15 min 14 sec) 
Heartbeat CPU  3 instructions:  133000002 cycles:  245734473 heartbeat IPC: 0.35321 cumulative IPC: 0.32242 (Simulation time: 0 hr 15 min 15 sec) 
Heartbeat CPU  2 instructions:  135000000 cycles:  246256101 heartbeat IPC: 0.40629 cumulative IPC: 0.33424 (Simulation time: 0 hr 15 min 17 sec) 
Heartbeat CPU  0 instructions:  125000001 cycles:  246731698 heartbeat IPC: 0.40368 cumulative IPC: 0.31163 (Simulation time: 0 hr 15 min 18 sec) 
Heartbeat CPU  3 instructions:  134000000 cycles:  248952747 heartbeat IPC: 0.31072 cumulative IPC: 0.32225 (Simulation time: 0 hr 15 min 24 sec) 
Heartbeat CPU  2 instructions:  136000000 cycles:  249036138 heartbeat IPC: 0.35971 cumulative IPC: 0.33455 (Simulation time: 0 hr 15 min 24 sec) 
Heartbeat CPU  0 instructions:  126000001 cycles:  249988147 heartbeat IPC: 0.30708 cumulative IPC: 0.31156 (Simulation time: 0 hr 15 min 26 sec) 
Heartbeat CPU  1 instructions:  117000002 cycles:  250300107 heartbeat IPC: 0.20204 cumulative IPC: 0.29697 (Simulation time: 0 hr 15 min 27 sec) 
Heartbeat CPU  3 instructions:  135000003 cycles:  251899579 heartbeat IPC: 0.33935 cumulative IPC: 0.32247 (Simulation time: 0 hr 15 min 31 sec) 
Heartbeat CPU  0 instructions:  127000000 cycles:  252600479 heartbeat IPC: 0.38280 cumulative IPC: 0.31238 (Simulation time: 0 hr 15 min 33 sec) 
Heartbeat CPU  1 instructions:  118000000 cycles:  252895639 heartbeat IPC: 0.38528 cumulative IPC: 0.29797 (Simulation time: 0 hr 15 min 34 sec) 
Heartbeat CPU  2 instructions:  137000000 cycles:  253336771 heartbeat IPC: 0.23252 cumulative IPC: 0.33263 (Simulation time: 0 hr 15 min 35 sec) 
Heartbeat CPU  3 instructions:  136000000 cycles:  254297413 heartbeat IPC: 0.41704 cumulative IPC: 0.32346 (Simulation time: 0 hr 15 min 38 sec) 
Heartbeat CPU  0 instructions:  128000000 cycles:  255150271 heartbeat IPC: 0.39219 cumulative IPC: 0.31326 (Simulation time: 0 hr 15 min 40 sec) 
Heartbeat CPU  2 instructions:  138000002 cycles:  255914202 heartbeat IPC: 0.38798 cumulative IPC: 0.33325 (Simulation time: 0 hr 15 min 42 sec) 
[...]
Core_0_L2C_rq_to_cache 2298472
Core_0_L2C_rq_full 0

Core_0_L2C_wq_access 544801
Core_0_L2C_wq_forward 50
Core_0_L2C_wq_merged 0
Core_0_L2C_wq_to_cache 544801
Core_0_L2C_wq_full 0

Core_0_L2C_pq_access 3095421
Core_0_L2C_pq_forward 0
Core_0_L2C_pq_merged 0
Core_0_L2C_pq_to_cache 3095421
Core_0_L2C_pq_full 0

Core_0_L2C_acc_epochs 227303
Core_0_L2C_acc_level_0 18222
Core_0_L2C_acc_level_1 25051
Core_0_L2C_acc_level_2 43134
Core_0_L2C_acc_level_3 58336
Core_0_L2C_acc_level_4 30979
Core_0_L2C_acc_level_5 16135
Core_0_L2C_acc_level_6 10216
Core_0_L2C_acc_level_7 7379
Core_0_L2C_acc_level_8 5328
Core_0_L2C_acc_level_9 12523

Core_0_LLC_total_access 2642460
Core_0_LLC_total_hit 1204673
Core_0_LLC_total_miss 1437787
Core_0_LLC_loads 947103
Core_0_LLC_load_hit 461597
Core_0_LLC_load_miss 485506
Core_0_LLC_RFOs 187079
Core_0_LLC_RFO_hit 46396
Core_0_LLC_RFO_miss 140683
Core_0_LLC_prefetches 1053996
Core_0_LLC_prefetch_hit 438507
Core_0_LLC_prefetch_miss 615489
Core_0_LLC_writebacks 454282
Core_0_LLC_writeback_hit 258173
Core_0_LLC_writeback_miss 196109
Core_0_LLC_prefetch_requested 0
Core_0_LLC_prefetch_dropped 0
Core_0_LLC_prefetch_issued 0
Core_0_LLC_prefetch_filled 4256912
Core_0_LLC_prefetch_useful 90993
Core_0_LLC_prefetch_useless 4120154
Core_0_LLC_prefetch_late 30
Core_0_LLC_average_miss_latency 805.45807

Core_0_LLC_rq_access 4693930
Core_0_LLC_rq_forward 0
Core_0_LLC_rq_merged 0
Core_0_LLC_rq_to_cache 4693907
Core_0_LLC_rq_full 0

Core_0_LLC_wq_access 1878781
Core_0_LLC_wq_forward 27
Core_0_LLC_wq_merged 0
Core_0_LLC_wq_to_cache 1878781
Core_0_LLC_wq_full 0

Core_0_LLC_pq_access 7035520
Core_0_LLC_pq_forward 0
Core_0_LLC_pq_merged 0
Core_0_LLC_pq_to_cache 7035516
Core_0_LLC_pq_full 0

Core_0_LLC_acc_epochs 543578
Core_0_LLC_acc_level_0 497726
Core_0_LLC_acc_level_1 28380
Core_0_LLC_acc_level_2 9523
Core_0_LLC_acc_level_3 2501
Core_0_LLC_acc_level_4 852
Core_0_LLC_acc_level_5 2980
Core_0_LLC_acc_level_6 478
Core_0_LLC_acc_level_7 290
Core_0_LLC_acc_level_8 163
Core_0_LLC_acc_level_9 685

Core_0_major_page_fault 0
Core_0_minor_page_fault 51884

Core_1_instructions 150000000
Core_1_cycles 531936457
Core_1_IPC 0.28199

Core_1_branch_prediction_accuracy 96.65874
Core_1_branch_MPKI 5.09649
Core_1_average_ROB_occupancy_at_mispredict 83.45839

Core_1_L1D_total_access 18063855
Core_1_L1D_total_hit 16225783
Core_1_L1D_total_miss 1838072
Core_1_L1D_loads 12120277
Core_1_L1D_load_hit 10530825
Core_1_L1D_load_miss 1589452
Core_1_L1D_RFOs 5943578
Core_1_L1D_RFO_hit 5694958
Core_1_L1D_RFO_miss 248620
Core_1_L1D_prefetches 0
Core_1_L1D_prefetch_hit 0
Core_1_L1D_prefetch_miss 0
Core_1_L1D_writebacks 0
Core_1_L1D_writeback_hit 0
Core_1_L1D_writeback_miss 0
Core_1_L1D_prefetch_requested 0
Core_1_L1D_prefetch_dropped 0
Core_1_L1D_prefetch_issued 0
Core_1_L1D_prefetch_filled 0
Core_1_L1D_prefetch_useful 0
Core_1_L1D_prefetch_useless 0
Core_1_L1D_prefetch_late 0
Core_1_L1D_average_miss_latency 161.22856

Core_1_L1D_rq_access 20788271
Core_1_L1D_rq_forward 0
Core_1_L1D_rq_merged 8204354
Core_1_L1D_rq_to_cache 12582531
Core_1_L1D_rq_full 0

Core_1_L1D_wq_access 6812531
Core_1_L1D_wq_forward 1386
Core_1_L1D_wq_merged 152954
Core_1_L1D_wq_to_cache 6659577
Core_1_L1D_wq_full 0

Core_1_L1D_pq_access 0
Core_1_L1D_pq_forward 0
Core_1_L1D_pq_merged 0
Core_1_L1D_pq_to_cache 0
Core_1_L1D_pq_full 0

Core_1_L1D_acc_epochs 223399
Core_1_L1D_acc_level_0 223399
Core_1_L1D_acc_level_1 0
Core_1_L1D_acc_level_2 0
Core_1_L1D_acc_level_3 0
Core_1_L1D_acc_level_4 0
Core_1_L1D_acc_level_5 0
Core_1_L1D_acc_level_6 0
Core_1_L1D_acc_level_7 0
Core_1_L1D_acc_level_8 0
Core_1_L1D_acc_level_9 0

Core_1_L1I_total_access 32328678
Core_1_L1I_total_hit 31430264
Core_1_L1I_total_miss 898414
Core_1_L1I_loads 32328678
Core_1_L1I_load_hit 31430264
Core_1_L1I_load_miss 898414
Core_1_L1I_RFOs 0
Core_1_L1I_RFO_hit 0
Core_1_L1I_RFO_miss 0
Core_1_L1I_prefetches 0
Core_1_L1I_prefetch_hit 0
Core_1_L1I_prefetch_miss 0
Core_1_L1I_writebacks 0
Core_1_L1I_writeback_hit 0
Core_1_L1I_writeback_miss 0
Core_1_L1I_prefetch_requested 0
Core_1_L1I_prefetch_dropped 0
Core_1_L1I_prefetch_issued 0
Core_1_L1I_prefetch_filled 0
Core_1_L1I_prefetch_useful 0
Core_1_L1I_prefetch_useless 0
Core_1_L1I_prefetch_late 0
Core_1_L1I_average_miss_latency 73.20391

Core_1_L1I_rq_access 150000045
Core_1_L1I_rq_forward 0
Core_1_L1I_rq_merged 117168132
Core_1_L1I_rq_to_cache 32831913
Core_1_L1I_rq_full 0

Core_1_L1I_wq_access 0
Core_1_L1I_wq_forward 0
Core_1_L1I_wq_merged 0
Core_1_L1I_wq_to_cache 0
Core_1_L1I_wq_full 0

Core_1_L1I_pq_access 0
Core_1_L1I_pq_forward 0
Core_1_L1I_pq_merged 0
Core_1_L1I_pq_to_cache 0
Core_1_L1I_pq_full 0

Core_1_L1I_acc_epochs 223399
Core_1_L1I_acc_level_0 223399
Core_1_L1I_acc_level_1 0
Core_1_L1I_acc_level_2 0
Core_1_L1I_acc_level_3 0
Core_1_L1I_acc_level_4 0
Core_1_L1I_acc_level_5 0
Core_1_L1I_acc_level_6 0
Core_1_L1I_acc_level_7 0
Core_1_L1I_acc_level_8 0
Core_1_L1I_acc_level_9 0

Core_1_L2C_total_access 5222223
Core_1_L2C_total_hit 2531014
Core_1_L2C_total_miss 2691209
Core_1_L2C_loads 2487840
Core_1_L2C_load_hit 1118098
Core_1_L2C_load_miss 1369742
Core_1_L2C_RFOs 248550
Core_1_L2C_RFO_hit 57481
Core_1_L2C_RFO_miss 191069
Core_1_L2C_prefetches 1884468
Core_1_L2C_prefetch_hit 766436
Core_1_L2C_prefetch_miss 1118032
Core_1_L2C_writebacks 601365
Core_1_L2C_writeback_hit 588999
Core_1_L2C_writeback_miss 12366
Core_1_L2C_prefetch_requested 3731999
Core_1_L2C_prefetch_dropped 0
Core_1_L2C_prefetch_issued 3731999
Core_1_L2C_prefetch_filled 1756668
Core_1_L2C_prefetch_useful 798358
Core_1_L2C_prefetch_useless 957106
Core_1_L2C_prefetch_late 234821
Core_1_L2C_average_miss_latency 165.54213

Core_1_L2C_rq_access 2736486
Core_1_L2C_rq_forward 0
Core_1_L2C_rq_merged 0
Core_1_L2C_rq_to_cache 2736390
Core_1_L2C_rq_full 0

Core_1_L2C_wq_access 601365
Core_1_L2C_wq_forward 98
Core_1_L2C_wq_merged 0
Core_1_L2C_wq_to_cache 601365
Core_1_L2C_wq_full 0

Core_1_L2C_pq_access 3731999
Core_1_L2C_pq_forward 0
Core_1_L2C_pq_merged 0
Core_1_L2C_pq_to_cache 3731997
Core_1_L2C_pq_full 0

Core_1_L2C_acc_epochs 223399
Core_1_L2C_acc_level_0 18031
Core_1_L2C_acc_level_1 21561
Core_1_L2C_acc_level_2 35574
Core_1_L2C_acc_level_3 46812
Core_1_L2C_acc_level_4 28974
Core_1_L2C_acc_level_5 17015
Core_1_L2C_acc_level_6 11754
Core_1_L2C_acc_level_7 10385
Core_1_L2C_acc_level_8 9188
Core_1_L2C_acc_level_9 24105

Core_1_LLC_total_access 3192576
Core_1_LLC_total_hit 1424795
Core_1_LLC_total_miss 1767781
Core_1_LLC_loads 1172510
Core_1_LLC_load_hit 526465
Core_1_LLC_load_miss 646045
Core_1_LLC_RFOs 190537
Core_1_LLC_RFO_hit 57041
Core_1_LLC_RFO_miss 133496
Core_1_LLC_prefetches 1315785
Core_1_LLC_prefetch_hit 499213
Core_1_LLC_prefetch_miss 816572
Core_1_LLC_writebacks 513744
Core_1_LLC_writeback_hit 342076
Core_1_LLC_writeback_miss 171668
Core_1_LLC_prefetch_requested 0
Core_1_LLC_prefetch_dropped 0
Core_1_LLC_prefetch_issued 0
Core_1_LLC_prefetch_filled 4256912
Core_1_LLC_prefetch_useful 90993
Core_1_LLC_prefetch_useless 4120154
Core_1_LLC_prefetch_late 30
Core_1_LLC_average_miss_latency 655.10215

Core_1_LLC_rq_access 4693930
Core_1_LLC_rq_forward 0
Core_1_LLC_rq_merged 0
Core_1_LLC_rq_to_cache 4693907
Core_1_LLC_rq_full 0

Core_1_LLC_wq_access 1878781
Core_1_LLC_wq_forward 27
Core_1_LLC_wq_merged 0
Core_1_LLC_wq_to_cache 1878781
Core_1_LLC_wq_full 0

Core_1_LLC_pq_access 7035520
Core_1_LLC_pq_forward 0
Core_1_LLC_pq_merged 0
Core_1_LLC_pq_to_cache 7035516
Core_1_LLC_pq_full 0

Core_1_LLC_acc_epochs 543578
Core_1_LLC_acc_level_0 497726
Core_1_LLC_acc_level_1 28380
Core_1_LLC_acc_level_2 9523
Core_1_LLC_acc_level_3 2501
Core_1_LLC_acc_level_4 852
Core_1_LLC_acc_level_5 2980
Core_1_LLC_acc_level_6 478
Core_1_LLC_acc_level_7 290
Core_1_LLC_acc_level_8 163
Core_1_LLC_acc_level_9 685

Core_1_major_page_fault 0
Core_1_minor_page_fault 52291

Core_2_instructions 150000001
Core_2_cycles 460170640
Core_2_IPC 0.32597

Core_2_branch_prediction_accuracy 97.75202
Core_2_branch_MPKI 3.06610
Core_2_average_ROB_occupancy_at_mispredict 106.45484

Core_2_L1D_total_access 16828566
Core_2_L1D_total_hit 15630064
Core_2_L1D_total_miss 1198502
Core_2_L1D_loads 11452908
Core_2_L1D_load_hit 10425622
Core_2_L1D_load_miss 1027286
Core_2_L1D_RFOs 5375658
Core_2_L1D_RFO_hit 5204442
Core_2_L1D_RFO_miss 171216
Core_2_L1D_prefetches 0
Core_2_L1D_prefetch_hit 0
Core_2_L1D_prefetch_miss 0
Core_2_L1D_writebacks 0
Core_2_L1D_writeback_hit 0
Core_2_L1D_writeback_miss 0
Core_2_L1D_prefetch_requested 0
Core_2_L1D_prefetch_dropped 0
Core_2_L1D_prefetch_issued 0
Core_2_L1D_prefetch_filled 0
Core_2_L1D_prefetch_useful 0
Core_2_L1D_prefetch_useless 0
Core_2_L1D_prefetch_late 0
Core_2_L1D_average_miss_latency 204.34179

Core_2_L1D_rq_access 22836081
Core_2_L1D_rq_forward 0
Core_2_L1D_rq_merged 9268342
Core_2_L1D_rq_to_cache 13567283
Core_2_L1D_rq_full 0

Core_2_L1D_wq_access 7040335
Core_2_L1D_wq_forward 456
Core_2_L1D_wq_merged 162353
Core_2_L1D_wq_to_cache 6877982
Core_2_L1D_wq_full 0

Core_2_L1D_pq_access 0
Core_2_L1D_pq_forward 0
Core_2_L1D_pq_merged 0
Core_2_L1D_pq_to_cache 0
Core_2_L1D_pq_full 0

Core_2_L1D_acc_epochs 227927
Core_2_L1D_acc_level_0 227927
Core_2_L1D_acc_level_1 0
Core_2_L1D_acc_level_2 0
Core_2_L1D_acc_level_3 0
Core_2_L1D_acc_level_4 0
Core_2_L1D_acc_level_5 0
Core_2_L1D_acc_level_6 0
Core_2_L1D_acc_level_7 0
Core_2_L1D_acc_level_8 0
Core_2_L1D_acc_level_9 0

Core_2_L1I_total_access 32458496
Core_2_L1I_total_hit 32140936
Core_2_L1I_total_miss 317560
Core_2_L1I_loads 32458496
Core_2_L1I_load_hit 32140936
Core_2_L1I_load_miss 317560
Core_2_L1I_RFOs 0
Core_2_L1I_RFO_hit 0
Core_2_L1I_RFO_miss 0
Core_2_L1I_prefetches 0
Core_2_L1I_prefetch_hit 0
Core_2_L1I_prefetch_miss 0
Core_2_L1I_writebacks 0
Core_2_L1I_writeback_hit 0
Core_2_L1I_writeback_miss 0
Core_2_L1I_prefetch_requested 0
Core_2_L1I_prefetch_dropped 0
Core_2_L1I_prefetch_issued 0
Core_2_L1I_prefetch_filled 0
Core_2_L1I_prefetch_useful 0
Core_2_L1I_prefetch_useless 0
Core_2_L1I_prefetch_late 0
Core_2_L1I_average_miss_latency 101.55234

Core_2_L1I_rq_access 177849539
Core_2_L1I_rq_forward 0
Core_2_L1I_rq_merged 139603478
Core_2_L1I_rq_to_cache 38246061
Core_2_L1I_rq_full 0

Core_2_L1I_wq_access 0
Core_2_L1I_wq_forward 0
Core_2_L1I_wq_merged 0
Core_2_L1I_wq_to_cache 0
Core_2_L1I_wq_full 0

Core_2_L1I_pq_access 0
Core_2_L1I_pq_forward 0
Core_2_L1I_pq_merged 0
Core_2_L1I_pq_to_cache 0
Core_2_L1I_pq_full 0

Core_2_L1I_acc_epochs 227927
Core_2_L1I_acc_level_0 227927
Core_2_L1I_acc_level_1 0
Core_2_L1I_acc_level_2 0
Core_2_L1I_acc_level_3 0
Core_2_L1I_acc_level_4 0
Core_2_L1I_acc_level_5 0
Core_2_L1I_acc_level_6 0
Core_2_L1I_acc_level_7 0
Core_2_L1I_acc_level_8 0
Core_2_L1I_acc_level_9 0

Core_2_L2C_total_access 2984507
Core_2_L2C_total_hit 1227626
Core_2_L2C_total_miss 1756881
Core_2_L2C_loads 1344836
Core_2_L2C_load_hit 524222
Core_2_L2C_load_miss 820614
Core_2_L2C_RFOs 171212
Core_2_L2C_RFO_hit 24814
Core_2_L2C_RFO_miss 146398
Core_2_L2C_prefetches 1063897
Core_2_L2C_prefetch_hit 277876
Core_2_L2C_prefetch_miss 786021
Core_2_L2C_writebacks 404562
Core_2_L2C_writeback_hit 400714
Core_2_L2C_writeback_miss 3848
Core_2_L2C_prefetch_requested 2341757
Core_2_L2C_prefetch_dropped 0
Core_2_L2C_prefetch_issued 2341757
Core_2_L2C_prefetch_filled 1450650
Core_2_L2C_prefetch_useful 612929
Core_2_L2C_prefetch_useless 836274
Core_2_L2C_prefetch_late 161462
Core_2_L2C_average_miss_latency 214.21302

Core_2_L2C_rq_access 1818133
Core_2_L2C_rq_forward 0
Core_2_L2C_rq_merged 0
Core_2_L2C_rq_to_cache 1818116
Core_2_L2C_rq_full 0

Core_2_L2C_wq_access 469325
Core_2_L2C_wq_forward 18
Core_2_L2C_wq_merged 0
Core_2_L2C_wq_to_cache 469325
Core_2_L2C_wq_full 0

Core_2_L2C_pq_access 2341757
Core_2_L2C_pq_forward 0
Core_2_L2C_pq_merged 0
Core_2_L2C_pq_to_cache 2341756
Core_2_L2C_pq_full 0

Core_2_L2C_acc_epochs 227927
Core_2_L2C_acc_level_0 15993
Core_2_L2C_acc_level_1 25377
Core_2_L2C_acc_level_2 44620
Core_2_L2C_acc_level_3 60118
Core_2_L2C_acc_level_4 29050
Core_2_L2C_acc_level_5 12370
Core_2_L2C_acc_level_6 7729
Core_2_L2C_acc_level_7 6833
Core_2_L2C_acc_level_8 6397
Core_2_L2C_acc_level_9 19440

Core_2_LLC_total_access 2126396
Core_2_LLC_total_hit 800928
Core_2_LLC_total_miss 1325468
Core_2_LLC_loads 718481
Core_2_LLC_load_hit 280565
Core_2_LLC_load_miss 437916
Core_2_LLC_RFOs 146036
Core_2_LLC_RFO_hit 33099
Core_2_LLC_RFO_miss 112937
Core_2_LLC_prefetches 888514
Core_2_LLC_prefetch_hit 292204
Core_2_LLC_prefetch_miss 596310
Core_2_LLC_writebacks 373365
Core_2_LLC_writeback_hit 195060
Core_2_LLC_writeback_miss 178305
Core_2_LLC_prefetch_requested 0
Core_2_LLC_prefetch_dropped 0
Core_2_LLC_prefetch_issued 0
Core_2_LLC_prefetch_filled 4256912
Core_2_LLC_prefetch_useful 90993
Core_2_LLC_prefetch_useless 4120154
Core_2_LLC_prefetch_late 30
Core_2_LLC_average_miss_latency 873.71188

Core_2_LLC_rq_access 4693930
Core_2_LLC_rq_forward 0
Core_2_LLC_rq_merged 0
Core_2_LLC_rq_to_cache 4693907
Core_2_LLC_rq_full 0

Core_2_LLC_wq_access 1878781
Core_2_LLC_wq_forward 27
Core_2_LLC_wq_merged 0
Core_2_LLC_wq_to_cache 1878781
Core_2_LLC_wq_full 0

Core_2_LLC_pq_access 7035520
Core_2_LLC_pq_forward 0
Core_2_LLC_pq_merged 0
Core_2_LLC_pq_to_cache 7035516
Core_2_LLC_pq_full 0

Core_2_LLC_acc_epochs 543578
Core_2_LLC_acc_level_0 497726
Core_2_LLC_acc_level_1 28380
Core_2_LLC_acc_level_2 9523
Core_2_LLC_acc_level_3 2501
Core_2_LLC_acc_level_4 852
Core_2_LLC_acc_level_5 2980
Core_2_LLC_acc_level_6 478
Core_2_LLC_acc_level_7 290
Core_2_LLC_acc_level_8 163
Core_2_LLC_acc_level_9 685

Core_2_major_page_fault 0
Core_2_minor_page_fault 49420

Core_3_instructions 150000002
Core_3_cycles 471973646
Core_3_IPC 0.31781

Core_3_branch_prediction_accuracy 97.74058
Core_3_branch_MPKI 3.06834
Core_3_average_ROB_occupancy_at_mispredict 107.32221

Core_3_L1D_total_access 16949901
Core_3_L1D_total_hit 15670043
Core_3_L1D_total_miss 1279858
Core_3_L1D_loads 11526222
Core_3_L1D_load_hit 10430345
Core_3_L1D_load_miss 1095877
Core_3_L1D_RFOs 5423679
Core_3_L1D_RFO_hit 5239698
Core_3_L1D_RFO_miss 183981
Core_3_L1D_prefetches 0
Core_3_L1D_prefetch_hit 0
Core_3_L1D_prefetch_miss 0
Core_3_L1D_writebacks 0
Core_3_L1D_writeback_hit 0
Core_3_L1D_writeback_miss 0
Core_3_L1D_prefetch_requested 0
Core_3_L1D_prefetch_dropped 0
Core_3_L1D_prefetch_issued 0
Core_3_L1D_prefetch_filled 0
Core_3_L1D_prefetch_useful 0
Core_3_L1D_prefetch_useless 0
Core_3_L1D_prefetch_late 0
Core_3_L1D_average_miss_latency 198.82573

Core_3_L1D_rq_access 22447933
Core_3_L1D_rq_forward 0
Core_3_L1D_rq_merged 9157500
Core_3_L1D_rq_to_cache 13290158
Core_3_L1D_rq_full 0

Core_3_L1D_wq_access 6971311
Core_3_L1D_wq_forward 275
Core_3_L1D_wq_merged 159499
Core_3_L1D_wq_to_cache 6811812
Core_3_L1D_wq_full 0

Core_3_L1D_pq_access 0
Core_3_L1D_pq_forward 0
Core_3_L1D_pq_merged 0
Core_3_L1D_pq_to_cache 0
Core_3_L1D_pq_full 0

Core_3_L1D_acc_epochs 224716
Core_3_L1D_acc_level_0 224716
Core_3_L1D_acc_level_1 0
Core_3_L1D_acc_level_2 0
Core_3_L1D_acc_level_3 0
Core_3_L1D_acc_level_4 0
Core_3_L1D_acc_level_5 0
Core_3_L1D_acc_level_6 0
Core_3_L1D_acc_level_7 0
Core_3_L1D_acc_level_8 0
Core_3_L1D_acc_level_9 0

Core_3_L1I_total_access 32216764
Core_3_L1I_total_hit 31893959
Core_3_L1I_total_miss 322805
Core_3_L1I_loads 32216764
Core_3_L1I_load_hit 31893959
Core_3_L1I_load_miss 322805
Core_3_L1I_RFOs 0
Core_3_L1I_RFO_hit 0
Core_3_L1I_RFO_miss 0
Core_3_L1I_prefetches 0
Core_3_L1I_prefetch_hit 0
Core_3_L1I_prefetch_miss 0
Core_3_L1I_writebacks 0
Core_3_L1I_writeback_hit 0
Core_3_L1I_writeback_miss 0
Core_3_L1I_prefetch_requested 0
Core_3_L1I_prefetch_dropped 0
Core_3_L1I_prefetch_issued 0
Core_3_L1I_prefetch_filled 0
Core_3_L1I_prefetch_useful 0
Core_3_L1I_prefetch_useless 0
Core_3_L1I_prefetch_late 0
Core_3_L1I_average_miss_latency 95.64818

Core_3_L1I_rq_access 172226722
Core_3_L1I_rq_forward 0
Core_3_L1I_rq_merged 135278370
Core_3_L1I_rq_to_cache 36948352
Core_3_L1I_rq_full 0

Core_3_L1I_wq_access 0
Core_3_L1I_wq_forward 0
Core_3_L1I_wq_merged 0
Core_3_L1I_wq_to_cache 0
Core_3_L1I_wq_full 0

Core_3_L1I_pq_access 0
Core_3_L1I_pq_forward 0
Core_3_L1I_pq_merged 0
Core_3_L1I_pq_to_cache 0
Core_3_L1I_pq_full 0

Core_3_L1I_acc_epochs 224716
Core_3_L1I_acc_level_0 224716
Core_3_L1I_acc_level_1 0
Core_3_L1I_acc_level_2 0
Core_3_L1I_acc_level_3 0
Core_3_L1I_acc_level_4 0
Core_3_L1I_acc_level_5 0
Core_3_L1I_acc_level_6 0
Core_3_L1I_acc_level_7 0
Core_3_L1I_acc_level_8 0
Core_3_L1I_acc_level_9 0

Core_3_L2C_total_access 3148858
Core_3_L2C_total_hit 1332970
Core_3_L2C_total_miss 1815888
Core_3_L2C_loads 1418677
Core_3_L2C_load_hit 569330
Core_3_L2C_load_miss 849347
Core_3_L2C_RFOs 183965
Core_3_L2C_RFO_hit 26475
Core_3_L2C_RFO_miss 157490
Core_3_L2C_prefetches 1125808
Core_3_L2C_prefetch_hit 320603
Core_3_L2C_prefetch_miss 805205
Core_3_L2C_writebacks 420408
Core_3_L2C_writeback_hit 416562
Core_3_L2C_writeback_miss 3846
Core_3_L2C_prefetch_requested 2423317
Core_3_L2C_prefetch_dropped 0
Core_3_L2C_prefetch_issued 2423317
Core_3_L2C_prefetch_filled 1443556
Core_3_L2C_prefetch_useful 603256
Core_3_L2C_prefetch_useless 839629
Core_3_L2C_prefetch_late 177941
Core_3_L2C_average_miss_latency 211.39927

Core_3_L2C_rq_access 1867532
Core_3_L2C_rq_forward 0
Core_3_L2C_rq_merged 0
Core_3_L2C_rq_to_cache 1867510
Core_3_L2C_rq_full 0

Core_3_L2C_wq_access 480562
Core_3_L2C_wq_forward 22
Core_3_L2C_wq_merged 0
Core_3_L2C_wq_to_cache 480562
Core_3_L2C_wq_full 0

Core_3_L2C_pq_access 2423317
Core_3_L2C_pq_forward 0
Core_3_L2C_pq_merged 0
Core_3_L2C_pq_to_cache 2423317
Core_3_L2C_pq_full 0

Core_3_L2C_acc_epochs 224716
Core_3_L2C_acc_level_0 16177
Core_3_L2C_acc_level_1 24270
Core_3_L2C_acc_level_2 44363
Core_3_L2C_acc_level_3 60056
Core_3_L2C_acc_level_4 27639
Core_3_L2C_acc_level_5 11522
Core_3_L2C_acc_level_6 7596
Core_3_L2C_acc_level_7 6754
Core_3_L2C_acc_level_8 6443
Core_3_L2C_acc_level_9 19896

Core_3_LLC_total_access 2196083
Core_3_LLC_total_hit 803949
Core_3_LLC_total_miss 1392134
Core_3_LLC_loads 733657
Core_3_LLC_load_hit 276041
Core_3_LLC_load_miss 457616
Core_3_LLC_RFOs 157106
Core_3_LLC_RFO_hit 40019
Core_3_LLC_RFO_miss 117087
Core_3_LLC_prefetches 921274
Core_3_LLC_prefetch_hit 286082
Core_3_LLC_prefetch_miss 635192
Core_3_LLC_writebacks 384046
Core_3_LLC_writeback_hit 201807
Core_3_LLC_writeback_miss 182239
Core_3_LLC_prefetch_requested 0
Core_3_LLC_prefetch_dropped 0
Core_3_LLC_prefetch_issued 0
Core_3_LLC_prefetch_filled 4256912
Core_3_LLC_prefetch_useful 90993
Core_3_LLC_prefetch_useless 4120154
Core_3_LLC_prefetch_late 30
Core_3_LLC_average_miss_latency 831.87189

Core_3_LLC_rq_access 4693930
Core_3_LLC_rq_forward 0
Core_3_LLC_rq_merged 0
Core_3_LLC_rq_to_cache 4693907
Core_3_LLC_rq_full 0

Core_3_LLC_wq_access 1878781
Core_3_LLC_wq_forward 27
Core_3_LLC_wq_merged 0
Core_3_LLC_wq_to_cache 1878781
Core_3_LLC_wq_full 0

Core_3_LLC_pq_access 7035520
Core_3_LLC_pq_forward 0
Core_3_LLC_pq_merged 0
Core_3_LLC_pq_to_cache 7035516
Core_3_LLC_pq_full 0

Core_3_LLC_acc_epochs 543578
Core_3_LLC_acc_level_0 497726
Core_3_LLC_acc_level_1 28380
Core_3_LLC_acc_level_2 9523
Core_3_LLC_acc_level_3 2501
Core_3_LLC_acc_level_4 852
Core_3_LLC_acc_level_5 2980
Core_3_LLC_acc_level_6 478
Core_3_LLC_acc_level_7 290
Core_3_LLC_acc_level_8 163
Core_3_LLC_acc_level_9 685

Core_3_major_page_fault 0
Core_3_minor_page_fault 51989

[CoopPythia Stats]
 - Useful prefetches: 3308249
 - Final alpha: 0.10000
[CoopPythia Stats]
 - Useful prefetches: 3308249
 - Final alpha: 0.10000
[CoopPythia Stats]
 - Useful prefetches: 3308249
 - Final alpha: 0.10000
[CoopPythia Stats]
 - Useful prefetches: 3308249
 - Final alpha: 0.10000
Channel_0_RQ_row_buffer_hit 283553
Channel_0_RQ_row_buffer_miss 2604218
Channel_0_WQ_row_buffer_hit 184797
Channel_0_WQ_row_buffer_miss 583674
Channel_0_WQ_full 0
Channel_0_dbus_congested 861142

Channel_1_RQ_row_buffer_hit 277469
Channel_1_RQ_row_buffer_miss 2573098
Channel_1_WQ_row_buffer_hit 182979
Channel_1_WQ_row_buffer_miss 591104
Channel_1_WQ_full 0
Channel_1_dbus_congested 857998

avg_congested_cycle 9

DRAM_bw_pochs 2174310
DRAM_bw_level_0 1938324
DRAM_bw_level_1 204374
DRAM_bw_level_2 25366
DRAM_bw_level_3 6246
