*************************************************
   ChampSim Multicore Out-of-Order Simulator
   Last compiled: Apr 16 2025 16:07:36
*************************************************
parsing config file: /pref/Pythia/config/coop_pythia.ini
unable to parse section: , name: bool coop_rl_enable, value: true
unable to parse section: , name: coop_enable_adaptive_alpha, value: true

trace_0 /pref/Pythia/CASSANDRA/traces/cassandra_phase0_core0.trace.xz
trace_1 /pref/Pythia/CASSANDRA/traces/cassandra_phase0_core1.trace.xz
trace_2 /pref/Pythia/CASSANDRA/traces/cassandra_phase0_core2.trace.xz
trace_3 /pref/Pythia/CASSANDRA/traces/cassandra_phase0_core3.trace.xz
Initialize SHIP state
warmup_instructions 50000000
simulation_instructions 150000000
champsim_seed 8742
measure_ipc 0
measure_ipc_epoch 1000
measure_dram_bw 1
measure_dram_bw_epoch 256
measure_cache_acc 1
measure_cache_acc_epoch 1024
l1d_perfect 0
l2c_perfect 0
llc_perfect 0
l1d_semi_perfect 0
l2c_semi_perfect 0
llc_semi_perfect 0
semi_perfect_cache_page_buffer_size 64

num_cpus 4
cpu_freq 4000
dram_io_freq 2400
page_size 4096
block_size 64
max_read_per_cycle 8
max_fill_per_cycle 1
dram_channels 2
log2_dram_channels 1
dram_ranks 1
dram_banks 8
dram_rows 65536
dram_columns 128
dram_row_size 8
dram_size 8192
dram_pages 2097152
======= Prefetcher Knob Settings =======
coop_enable_multicore: 0
coop_enable_bw_throttling: 1
coop_rl_enable: 0
coop_rl_ipc_threshold: 
coop_rl_alpha_high_ipc: 0.05
coop_rl_alpha_low_ipc: 0.01
coop_rl_bw_threshold: 10
========================================
fetch_width 6
decode_width 6
exec_width 4
lq_width 2
sq_width 2
retire_width 4
scheduler_size 128
branch_mispredict_penalty 20
rob_size 256
lq_size 72
sq_size 56
num_instr_destinations_sparc 4
num_instr_destinations 2
num_instr_sources 4

itlb_set 16
itlb_way 8
itlb_rq_size 16
itlb_wq_size 16
itlb_pq_size 0
itlb_mshr_size 8
itlb_latency 1

dtlb_set 16
dtlb_way 4
dtlb_rq_size 16
dtlb_wq_size 16
dtlb_pq_size 0
dtlb_mshr_size 8
dtlb_latency 1

stlb_set 128
stlb_way 12
stlb_rq_size 32
stlb_wq_size 32
stlb_pq_size 0
stlb_mshr_size 16
stlb_latency 8

l1i_size 32
l1i_set 64
l1i_way 8
l1i_rq_size 64
l1i_wq_size 64
l1i_pq_size 8
l1i_mshr_size 8
l1i_latency 1

l1d_size 32
l1d_set 64
l1d_way 8
l1d_rq_size 64
l1d_wq_size 64
l1d_pq_size 32
l1d_mshr_size 16
l1d_latency 4

l2c_size 256
l2c_set 512
l2c_way 8
l2c_rq_size 128
l2c_wq_size 32
l2c_pq_size 128
l2c_mshr_size 128
l2c_latency 10

llc_size 8192
llc_set 8192
llc_way 16
llc_rq_size 256
llc_wq_size 512
llc_pq_size 128
llc_mshr_size 256
llc_latency 20

dram_channel_width 8
dram_wq_size 64
dram_rq_size 64
tRP 15
tRCD 15
tCAS 12.5
dram_dbus_turn_around_time 30
dram_write_high_wm 56
dram_write_low_wm 48
min_dram_writes_per_switch 16
dram_mtps 2400
dram_dbus_return_time 13

[CoopPythia Config]
 - Bandwidth-aware throttling: Enabled
 - Multicore cooperation: Disabled
 - RL Enabled: No
 - Adaptive Alpha: Enabled
 - IPC Threshold: 4
 - BW Threshold: 10
 - Alpha High: 0.05
 - Alpha Low: 0.01

Heartbeat CPU  3 instructions:    1000002 cycles:     353862 heartbeat IPC: 2.82597 cumulative IPC: 2.82597 (Simulation time: 0 hr 0 min 4 sec) 
Heartbeat CPU  2 instructions:    1000000 cycles:     397586 heartbeat IPC: 2.51518 cumulative IPC: 2.51518 (Simulation time: 0 hr 0 min 5 sec) 
Heartbeat CPU  0 instructions:    1000003 cycles:     539874 heartbeat IPC: 1.85229 cumulative IPC: 1.85229 (Simulation time: 0 hr 0 min 7 sec) 
Heartbeat CPU  1 instructions:    1000001 cycles:     552533 heartbeat IPC: 1.80985 cumulative IPC: 1.80985 (Simulation time: 0 hr 0 min 7 sec) 
Heartbeat CPU  3 instructions:    2000000 cycles:     689803 heartbeat IPC: 2.97671 cumulative IPC: 2.89938 (Simulation time: 0 hr 0 min 9 sec) 
Heartbeat CPU  2 instructions:    2000000 cycles:     739217 heartbeat IPC: 2.92713 cumulative IPC: 2.70557 (Simulation time: 0 hr 0 min 9 sec) 
Heartbeat CPU  0 instructions:    2000000 cycles:     914380 heartbeat IPC: 2.67018 cumulative IPC: 2.18727 (Simulation time: 0 hr 0 min 11 sec) 
Heartbeat CPU  3 instructions:    3000003 cycles:    1016792 heartbeat IPC: 3.05822 cumulative IPC: 2.95046 (Simulation time: 0 hr 0 min 12 sec) 
Heartbeat CPU  2 instructions:    3000000 cycles:    1083307 heartbeat IPC: 2.90622 cumulative IPC: 2.76930 (Simulation time: 0 hr 0 min 13 sec) 
Heartbeat CPU  1 instructions:    2000000 cycles:    1301904 heartbeat IPC: 1.33445 cumulative IPC: 1.53621 (Simulation time: 0 hr 0 min 15 sec) 
Heartbeat CPU  3 instructions:    4000000 cycles:    1352050 heartbeat IPC: 2.98277 cumulative IPC: 2.95847 (Simulation time: 0 hr 0 min 16 sec) 
Heartbeat CPU  0 instructions:    3000003 cycles:    1618683 heartbeat IPC: 1.41985 cumulative IPC: 1.85336 (Simulation time: 0 hr 0 min 19 sec) 
Heartbeat CPU  1 instructions:    3000002 cycles:    1655058 heartbeat IPC: 2.83163 cumulative IPC: 1.81263 (Simulation time: 0 hr 0 min 20 sec) 
Heartbeat CPU  3 instructions:    5000001 cycles:    1691956 heartbeat IPC: 2.94199 cumulative IPC: 2.95516 (Simulation time: 0 hr 0 min 20 sec) 
Heartbeat CPU  2 instructions:    4000000 cycles:    1764138 heartbeat IPC: 1.46879 cumulative IPC: 2.26740 (Simulation time: 0 hr 0 min 21 sec) 
Heartbeat CPU  1 instructions:    4000000 cycles:    2002624 heartbeat IPC: 2.87715 cumulative IPC: 1.99738 (Simulation time: 0 hr 0 min 24 sec) 
Heartbeat CPU  0 instructions:    4000000 cycles:    2035489 heartbeat IPC: 2.39919 cumulative IPC: 1.96513 (Simulation time: 0 hr 0 min 25 sec) 
Heartbeat CPU  3 instructions:    6000002 cycles:    2079911 heartbeat IPC: 2.57762 cumulative IPC: 2.88474 (Simulation time: 0 hr 0 min 25 sec) 
Heartbeat CPU  2 instructions:    5000000 cycles:    2117722 heartbeat IPC: 2.82818 cumulative IPC: 2.36103 (Simulation time: 0 hr 0 min 26 sec) 
Heartbeat CPU  1 instructions:    5000003 cycles:    2337537 heartbeat IPC: 2.98586 cumulative IPC: 2.13900 (Simulation time: 0 hr 0 min 29 sec) 
Heartbeat CPU  3 instructions:    7000001 cycles:    2420215 heartbeat IPC: 2.93855 cumulative IPC: 2.89231 (Simulation time: 0 hr 0 min 30 sec) 
Heartbeat CPU  0 instructions:    5000001 cycles:    2421625 heartbeat IPC: 2.58976 cumulative IPC: 2.06473 (Simulation time: 0 hr 0 min 30 sec) 
Heartbeat CPU  2 instructions:    6000000 cycles:    2449439 heartbeat IPC: 3.01462 cumulative IPC: 2.44954 (Simulation time: 0 hr 0 min 30 sec) 
Heartbeat CPU  1 instructions:    6000002 cycles:    2671442 heartbeat IPC: 2.99486 cumulative IPC: 2.24598 (Simulation time: 0 hr 0 min 34 sec) 
Heartbeat CPU  0 instructions:    6000002 cycles:    2754725 heartbeat IPC: 3.00210 cumulative IPC: 2.17808 (Simulation time: 0 hr 0 min 35 sec) 
Heartbeat CPU  3 instructions:    8000000 cycles:    2755486 heartbeat IPC: 2.98266 cumulative IPC: 2.90330 (Simulation time: 0 hr 0 min 35 sec) 
Heartbeat CPU  2 instructions:    7000002 cycles:    2781486 heartbeat IPC: 3.01163 cumulative IPC: 2.51664 (Simulation time: 0 hr 0 min 35 sec) 
Heartbeat CPU  3 instructions:    9000001 cycles:    3083689 heartbeat IPC: 3.04690 cumulative IPC: 2.91858 (Simulation time: 0 hr 0 min 39 sec) 
Heartbeat CPU  0 instructions:    7000000 cycles:    3090696 heartbeat IPC: 2.97644 cumulative IPC: 2.26486 (Simulation time: 0 hr 0 min 39 sec) 
Heartbeat CPU  1 instructions:    7000001 cycles:    3168948 heartbeat IPC: 2.01002 cumulative IPC: 2.20894 (Simulation time: 0 hr 0 min 40 sec) 
Heartbeat CPU  2 instructions:    8000000 cycles:    3279331 heartbeat IPC: 2.00865 cumulative IPC: 2.43952 (Simulation time: 0 hr 0 min 41 sec) 
Heartbeat CPU  0 instructions:    8000000 cycles:    3416329 heartbeat IPC: 3.07094 cumulative IPC: 2.34169 (Simulation time: 0 hr 0 min 43 sec) 
Heartbeat CPU  3 instructions:   10000001 cycles:    3480811 heartbeat IPC: 2.51812 cumulative IPC: 2.87289 (Simulation time: 0 hr 0 min 44 sec) 
Heartbeat CPU  2 instructions:    9000000 cycles:    3636556 heartbeat IPC: 2.79936 cumulative IPC: 2.47487 (Simulation time: 0 hr 0 min 46 sec) 
Heartbeat CPU  1 instructions:    8000000 cycles:    3679947 heartbeat IPC: 1.95695 cumulative IPC: 2.17394 (Simulation time: 0 hr 0 min 47 sec) 
Heartbeat CPU  0 instructions:    9000001 cycles:    3749305 heartbeat IPC: 3.00322 cumulative IPC: 2.40045 (Simulation time: 0 hr 0 min 47 sec) 
Heartbeat CPU  3 instructions:   11000002 cycles:    3927499 heartbeat IPC: 2.23870 cumulative IPC: 2.80077 (Simulation time: 0 hr 0 min 50 sec) 
Heartbeat CPU  1 instructions:    9000000 cycles:    4081571 heartbeat IPC: 2.48989 cumulative IPC: 2.20503 (Simulation time: 0 hr 0 min 51 sec) 
Heartbeat CPU  2 instructions:   10000000 cycles:    4114622 heartbeat IPC: 2.09176 cumulative IPC: 2.43036 (Simulation time: 0 hr 0 min 52 sec) 
Heartbeat CPU  0 instructions:   10000000 cycles:    4159579 heartbeat IPC: 2.43739 cumulative IPC: 2.40409 (Simulation time: 0 hr 0 min 52 sec) 
Heartbeat CPU  3 instructions:   12000000 cycles:    4315343 heartbeat IPC: 2.57835 cumulative IPC: 2.78078 (Simulation time: 0 hr 0 min 55 sec) 
Heartbeat CPU  1 instructions:   10000000 cycles:    4414912 heartbeat IPC: 2.99993 cumulative IPC: 2.26505 (Simulation time: 0 hr 0 min 56 sec) 
Heartbeat CPU  2 instructions:   11000002 cycles:    4652689 heartbeat IPC: 1.85851 cumulative IPC: 2.36422 (Simulation time: 0 hr 0 min 59 sec) 
Heartbeat CPU  3 instructions:   13000000 cycles:    4678334 heartbeat IPC: 2.75489 cumulative IPC: 2.77877 (Simulation time: 0 hr 0 min 59 sec) 
Heartbeat CPU  0 instructions:   11000001 cycles:    4685479 heartbeat IPC: 1.90150 cumulative IPC: 2.34768 (Simulation time: 0 hr 0 min 59 sec) 
Heartbeat CPU  1 instructions:   11000002 cycles:    4819464 heartbeat IPC: 2.47187 cumulative IPC: 2.28241 (Simulation time: 0 hr 1 min 1 sec) 
Heartbeat CPU  2 instructions:   12000000 cycles:    5015488 heartbeat IPC: 2.75634 cumulative IPC: 2.39259 (Simulation time: 0 hr 1 min 3 sec) 
Heartbeat CPU  0 instructions:   12000000 cycles:    5030568 heartbeat IPC: 2.89780 cumulative IPC: 2.38542 (Simulation time: 0 hr 1 min 4 sec) 
Heartbeat CPU  3 instructions:   14000003 cycles:    5050239 heartbeat IPC: 2.68887 cumulative IPC: 2.77215 (Simulation time: 0 hr 1 min 4 sec) 
Heartbeat CPU  1 instructions:   12000000 cycles:    5153664 heartbeat IPC: 2.99221 cumulative IPC: 2.32844 (Simulation time: 0 hr 1 min 5 sec) 
Heartbeat CPU  2 instructions:   13000002 cycles:    5347766 heartbeat IPC: 3.00953 cumulative IPC: 2.43092 (Simulation time: 0 hr 1 min 8 sec) 
Heartbeat CPU  0 instructions:   13000001 cycles:    5363709 heartbeat IPC: 3.00173 cumulative IPC: 2.42370 (Simulation time: 0 hr 1 min 9 sec) 
Heartbeat CPU  3 instructions:   15000002 cycles:    5384807 heartbeat IPC: 2.98893 cumulative IPC: 2.78562 (Simulation time: 0 hr 1 min 9 sec) 
Heartbeat CPU  1 instructions:   13000000 cycles:    5488310 heartbeat IPC: 2.98823 cumulative IPC: 2.36867 (Simulation time: 0 hr 1 min 10 sec) 
Heartbeat CPU  2 instructions:   14000003 cycles:    5700190 heartbeat IPC: 2.83749 cumulative IPC: 2.45606 (Simulation time: 0 hr 1 min 13 sec) 
Heartbeat CPU  3 instructions:   16000000 cycles:    5717739 heartbeat IPC: 3.00361 cumulative IPC: 2.79831 (Simulation time: 0 hr 1 min 14 sec) 
Heartbeat CPU  0 instructions:   14000000 cycles:    5773616 heartbeat IPC: 2.43958 cumulative IPC: 2.42482 (Simulation time: 0 hr 1 min 14 sec) 
Heartbeat CPU  1 instructions:   14000001 cycles:    5835717 heartbeat IPC: 2.87847 cumulative IPC: 2.39902 (Simulation time: 0 hr 1 min 15 sec) 
Heartbeat CPU  2 instructions:   15000000 cycles:    6032221 heartbeat IPC: 3.01176 cumulative IPC: 2.48665 (Simulation time: 0 hr 1 min 18 sec) 
Heartbeat CPU  0 instructions:   15000001 cycles:    6125092 heartbeat IPC: 2.84515 cumulative IPC: 2.44894 (Simulation time: 0 hr 1 min 19 sec) 
Heartbeat CPU  1 instructions:   15000003 cycles:    6166099 heartbeat IPC: 3.02681 cumulative IPC: 2.43266 (Simulation time: 0 hr 1 min 20 sec) 
Heartbeat CPU  3 instructions:   17000002 cycles:    6174651 heartbeat IPC: 2.18861 cumulative IPC: 2.75319 (Simulation time: 0 hr 1 min 20 sec) 
Heartbeat CPU  2 instructions:   16000000 cycles:    6447743 heartbeat IPC: 2.40661 cumulative IPC: 2.48149 (Simulation time: 0 hr 1 min 24 sec) 
Heartbeat CPU  0 instructions:   16000000 cycles:    6457284 heartbeat IPC: 3.01030 cumulative IPC: 2.47782 (Simulation time: 0 hr 1 min 24 sec) 
Heartbeat CPU  1 instructions:   16000000 cycles:    6498293 heartbeat IPC: 3.01028 cumulative IPC: 2.46219 (Simulation time: 0 hr 1 min 24 sec) 
Heartbeat CPU  3 instructions:   18000001 cycles:    6511788 heartbeat IPC: 2.96615 cumulative IPC: 2.76422 (Simulation time: 0 hr 1 min 25 sec) 
Heartbeat CPU  0 instructions:   17000003 cycles:    6839799 heartbeat IPC: 2.61428 cumulative IPC: 2.48545 (Simulation time: 0 hr 1 min 29 sec) 
Heartbeat CPU  1 instructions:   17000000 cycles:    6888974 heartbeat IPC: 2.55963 cumulative IPC: 2.46771 (Simulation time: 0 hr 1 min 29 sec) 
Heartbeat CPU  2 instructions:   17000001 cycles:    6969347 heartbeat IPC: 1.91717 cumulative IPC: 2.43925 (Simulation time: 0 hr 1 min 30 sec) 
Heartbeat CPU  3 instructions:   19000000 cycles:    6983511 heartbeat IPC: 2.11989 cumulative IPC: 2.72069 (Simulation time: 0 hr 1 min 31 sec) 
Heartbeat CPU  0 instructions:   18000003 cycles:    7184323 heartbeat IPC: 2.90256 cumulative IPC: 2.50546 (Simulation time: 0 hr 1 min 33 sec) 
Heartbeat CPU  2 instructions:   18000001 cycles:    7291738 heartbeat IPC: 3.10182 cumulative IPC: 2.46855 (Simulation time: 0 hr 1 min 35 sec) 
Heartbeat CPU  3 instructions:   20000000 cycles:    7329337 heartbeat IPC: 2.89163 cumulative IPC: 2.72876 (Simulation time: 0 hr 1 min 35 sec) 
Heartbeat CPU  1 instructions:   18000002 cycles:    7479966 heartbeat IPC: 1.69207 cumulative IPC: 2.40643 (Simulation time: 0 hr 1 min 37 sec) 
Heartbeat CPU  0 instructions:   19000003 cycles:    7505534 heartbeat IPC: 3.11322 cumulative IPC: 2.53147 (Simulation time: 0 hr 1 min 38 sec) 
Heartbeat CPU  2 instructions:   19000002 cycles:    7623154 heartbeat IPC: 3.01736 cumulative IPC: 2.49241 (Simulation time: 0 hr 1 min 39 sec) 
Heartbeat CPU  3 instructions:   21000000 cycles:    7706791 heartbeat IPC: 2.64933 cumulative IPC: 2.72487 (Simulation time: 0 hr 1 min 40 sec) 
Heartbeat CPU  0 instructions:   20000000 cycles:    7844119 heartbeat IPC: 2.95346 cumulative IPC: 2.54968 (Simulation time: 0 hr 1 min 43 sec) 
Heartbeat CPU  1 instructions:   19000003 cycles:    7898186 heartbeat IPC: 2.39109 cumulative IPC: 2.40562 (Simulation time: 0 hr 1 min 43 sec) 
Heartbeat CPU  2 instructions:   20000000 cycles:    8019443 heartbeat IPC: 2.52341 cumulative IPC: 2.49394 (Simulation time: 0 hr 1 min 45 sec) 
Heartbeat CPU  3 instructions:   22000002 cycles:    8075469 heartbeat IPC: 2.71240 cumulative IPC: 2.72430 (Simulation time: 0 hr 1 min 46 sec) 
Heartbeat CPU  0 instructions:   21000000 cycles:    8177017 heartbeat IPC: 3.00392 cumulative IPC: 2.56817 (Simulation time: 0 hr 1 min 47 sec) 
Heartbeat CPU  1 instructions:   20000000 cycles:    8278826 heartbeat IPC: 2.62715 cumulative IPC: 2.41580 (Simulation time: 0 hr 1 min 48 sec) 
Heartbeat CPU  2 instructions:   21000002 cycles:    8362408 heartbeat IPC: 2.91576 cumulative IPC: 2.51124 (Simulation time: 0 hr 1 min 50 sec) 
Heartbeat CPU  3 instructions:   23000002 cycles:    8410749 heartbeat IPC: 2.98258 cumulative IPC: 2.73460 (Simulation time: 0 hr 1 min 50 sec) 
Heartbeat CPU  0 instructions:   22000001 cycles:    8509487 heartbeat IPC: 3.00779 cumulative IPC: 2.58535 (Simulation time: 0 hr 1 min 52 sec) 
Heartbeat CPU  1 instructions:   21000003 cycles:    8620170 heartbeat IPC: 2.92960 cumulative IPC: 2.43615 (Simulation time: 0 hr 1 min 53 sec) 
Heartbeat CPU  2 instructions:   22000001 cycles:    8691804 heartbeat IPC: 3.03586 cumulative IPC: 2.53112 (Simulation time: 0 hr 1 min 55 sec) 
Heartbeat CPU  3 instructions:   24000000 cycles:    8822773 heartbeat IPC: 2.42704 cumulative IPC: 2.72023 (Simulation time: 0 hr 1 min 56 sec) 
Heartbeat CPU  0 instructions:   23000003 cycles:    8892510 heartbeat IPC: 2.61081 cumulative IPC: 2.58645 (Simulation time: 0 hr 1 min 57 sec) 
Heartbeat CPU  2 instructions:   23000002 cycles:    9033742 heartbeat IPC: 2.92451 cumulative IPC: 2.54601 (Simulation time: 0 hr 1 min 59 sec) 
Heartbeat CPU  3 instructions:   25000001 cycles:    9222869 heartbeat IPC: 2.49940 cumulative IPC: 2.71065 (Simulation time: 0 hr 2 min 1 sec) 
Heartbeat CPU  1 instructions:   22000000 cycles:    9276113 heartbeat IPC: 1.52452 cumulative IPC: 2.37168 (Simulation time: 0 hr 2 min 1 sec) 
Heartbeat CPU  0 instructions:   24000000 cycles:    9352494 heartbeat IPC: 2.17398 cumulative IPC: 2.56616 (Simulation time: 0 hr 2 min 2 sec) 
Heartbeat CPU  2 instructions:   24000000 cycles:    9379452 heartbeat IPC: 2.89259 cumulative IPC: 2.55878 (Simulation time: 0 hr 2 min 3 sec) 
Heartbeat CPU  3 instructions:   26000002 cycles:    9557334 heartbeat IPC: 2.98985 cumulative IPC: 2.72042 (Simulation time: 0 hr 2 min 5 sec) 
Heartbeat CPU  0 instructions:   25000003 cycles:    9684698 heartbeat IPC: 3.01021 cumulative IPC: 2.58139 (Simulation time: 0 hr 2 min 7 sec) 
Heartbeat CPU  1 instructions:   23000001 cycles:    9698906 heartbeat IPC: 2.36523 cumulative IPC: 2.37140 (Simulation time: 0 hr 2 min 7 sec) 
Heartbeat CPU  2 instructions:   25000001 cycles:    9718541 heartbeat IPC: 2.94908 cumulative IPC: 2.57240 (Simulation time: 0 hr 2 min 8 sec) 
Heartbeat CPU  3 instructions:   27000001 cycles:    9890589 heartbeat IPC: 3.00070 cumulative IPC: 2.72987 (Simulation time: 0 hr 2 min 10 sec) 
Heartbeat CPU  0 instructions:   26000000 cycles:   10020780 heartbeat IPC: 2.97546 cumulative IPC: 2.59461 (Simulation time: 0 hr 2 min 12 sec) 
Heartbeat CPU  1 instructions:   24000000 cycles:   10026227 heartbeat IPC: 3.05510 cumulative IPC: 2.39372 (Simulation time: 0 hr 2 min 12 sec) 
Heartbeat CPU  2 instructions:   26000003 cycles:   10055614 heartbeat IPC: 2.96672 cumulative IPC: 2.58562 (Simulation time: 0 hr 2 min 13 sec) 
Heartbeat CPU  3 instructions:   28000000 cycles:   10224539 heartbeat IPC: 2.99446 cumulative IPC: 2.73851 (Simulation time: 0 hr 2 min 15 sec) 
Heartbeat CPU  0 instructions:   27000001 cycles:   10353263 heartbeat IPC: 3.00768 cumulative IPC: 2.60787 (Simulation time: 0 hr 2 min 17 sec) 
Heartbeat CPU  1 instructions:   25000002 cycles:   10359407 heartbeat IPC: 3.00139 cumulative IPC: 2.41327 (Simulation time: 0 hr 2 min 17 sec) 
Heartbeat CPU  2 instructions:   27000000 cycles:   10504418 heartbeat IPC: 2.22814 cumulative IPC: 2.57035 (Simulation time: 0 hr 2 min 19 sec) 
Heartbeat CPU  3 instructions:   29000001 cycles:   10556725 heartbeat IPC: 3.01036 cumulative IPC: 2.74706 (Simulation time: 0 hr 2 min 20 sec) 
Heartbeat CPU  0 instructions:   28000000 cycles:   10682901 heartbeat IPC: 3.03363 cumulative IPC: 2.62101 (Simulation time: 0 hr 2 min 21 sec) 
Heartbeat CPU  1 instructions:   26000000 cycles:   10691775 heartbeat IPC: 3.00871 cumulative IPC: 2.43178 (Simulation time: 0 hr 2 min 22 sec) 
Heartbeat CPU  3 instructions:   30000001 cycles:   10975083 heartbeat IPC: 2.39030 cumulative IPC: 2.73346 (Simulation time: 0 hr 2 min 25 sec) 
Heartbeat CPU  0 instructions:   29000001 cycles:   11014461 heartbeat IPC: 3.01605 cumulative IPC: 2.63290 (Simulation time: 0 hr 2 min 26 sec) 
Heartbeat CPU  1 instructions:   27000001 cycles:   11023815 heartbeat IPC: 3.01169 cumulative IPC: 2.44924 (Simulation time: 0 hr 2 min 26 sec) 
Heartbeat CPU  2 instructions:   28000000 cycles:   11144218 heartbeat IPC: 1.56299 cumulative IPC: 2.51251 (Simulation time: 0 hr 2 min 27 sec) 
Heartbeat CPU  3 instructions:   31000000 cycles:   11300373 heartbeat IPC: 3.07418 cumulative IPC: 2.74327 (Simulation time: 0 hr 2 min 30 sec) 
Heartbeat CPU  0 instructions:   30000002 cycles:   11346587 heartbeat IPC: 3.01091 cumulative IPC: 2.64397 (Simulation time: 0 hr 2 min 30 sec) 
Heartbeat CPU  1 instructions:   28000000 cycles:   11393162 heartbeat IPC: 2.70748 cumulative IPC: 2.45761 (Simulation time: 0 hr 2 min 31 sec) 
Heartbeat CPU  2 instructions:   29000001 cycles:   11528077 heartbeat IPC: 2.60513 cumulative IPC: 2.51560 (Simulation time: 0 hr 2 min 33 sec) 
Heartbeat CPU  3 instructions:   32000000 cycles:   11676474 heartbeat IPC: 2.65886 cumulative IPC: 2.74055 (Simulation time: 0 hr 2 min 35 sec) 
Heartbeat CPU  0 instructions:   31000003 cycles:   11735806 heartbeat IPC: 2.56925 cumulative IPC: 2.64149 (Simulation time: 0 hr 2 min 35 sec) 
Heartbeat CPU  2 instructions:   30000000 cycles:   11868826 heartbeat IPC: 2.93471 cumulative IPC: 2.52763 (Simulation time: 0 hr 2 min 37 sec) 
Heartbeat CPU  1 instructions:   29000002 cycles:   12011851 heartbeat IPC: 1.61632 cumulative IPC: 2.41428 (Simulation time: 0 hr 2 min 39 sec) 
Heartbeat CPU  3 instructions:   33000001 cycles:   12093359 heartbeat IPC: 2.39875 cumulative IPC: 2.72877 (Simulation time: 0 hr 2 min 40 sec) 
Heartbeat CPU  0 instructions:   32000000 cycles:   12120686 heartbeat IPC: 2.59820 cumulative IPC: 2.64011 (Simulation time: 0 hr 2 min 40 sec) 
Heartbeat CPU  2 instructions:   31000000 cycles:   12263937 heartbeat IPC: 2.53093 cumulative IPC: 2.52774 (Simulation time: 0 hr 2 min 42 sec) 
Heartbeat CPU  1 instructions:   30000003 cycles:   12460444 heartbeat IPC: 2.22919 cumulative IPC: 2.40762 (Simulation time: 0 hr 2 min 44 sec) 
Heartbeat CPU  0 instructions:   33000000 cycles:   12497863 heartbeat IPC: 2.65128 cumulative IPC: 2.64045 (Simulation time: 0 hr 2 min 45 sec) 
Heartbeat CPU  3 instructions:   34000001 cycles:   12554982 heartbeat IPC: 2.16627 cumulative IPC: 2.70809 (Simulation time: 0 hr 2 min 45 sec) 
Heartbeat CPU  1 instructions:   31000000 cycles:   12795793 heartbeat IPC: 2.98196 cumulative IPC: 2.42267 (Simulation time: 0 hr 2 min 48 sec) 
Heartbeat CPU  2 instructions:   32000000 cycles:   12871778 heartbeat IPC: 1.64517 cumulative IPC: 2.48606 (Simulation time: 0 hr 2 min 49 sec) 
Heartbeat CPU  3 instructions:   35000001 cycles:   12939381 heartbeat IPC: 2.60146 cumulative IPC: 2.70492 (Simulation time: 0 hr 2 min 50 sec) 
Heartbeat CPU  0 instructions:   34000003 cycles:   12956327 heartbeat IPC: 2.18120 cumulative IPC: 2.62420 (Simulation time: 0 hr 2 min 50 sec) 
Heartbeat CPU  1 instructions:   32000000 cycles:   13215281 heartbeat IPC: 2.38386 cumulative IPC: 2.42144 (Simulation time: 0 hr 2 min 54 sec) 
Heartbeat CPU  3 instructions:   36000000 cycles:   13268243 heartbeat IPC: 3.04079 cumulative IPC: 2.71325 (Simulation time: 0 hr 2 min 54 sec) 
Heartbeat CPU  0 instructions:   35000000 cycles:   13297539 heartbeat IPC: 2.93072 cumulative IPC: 2.63207 (Simulation time: 0 hr 2 min 55 sec) 
Heartbeat CPU  2 instructions:   33000002 cycles:   13315878 heartbeat IPC: 2.25175 cumulative IPC: 2.47824 (Simulation time: 0 hr 2 min 55 sec) 
Heartbeat CPU  1 instructions:   33000003 cycles:   13564684 heartbeat IPC: 2.86203 cumulative IPC: 2.43279 (Simulation time: 0 hr 2 min 59 sec) 
Heartbeat CPU  3 instructions:   37000001 cycles:   13600351 heartbeat IPC: 3.01107 cumulative IPC: 2.72052 (Simulation time: 0 hr 2 min 59 sec) 
Heartbeat CPU  0 instructions:   36000000 cycles:   13623393 heartbeat IPC: 3.06886 cumulative IPC: 2.64251 (Simulation time: 0 hr 3 min 0 sec) 
Heartbeat CPU  2 instructions:   34000000 cycles:   13659019 heartbeat IPC: 2.91425 cumulative IPC: 2.48920 (Simulation time: 0 hr 3 min 0 sec) 
Heartbeat CPU  1 instructions:   34000003 cycles:   13904283 heartbeat IPC: 2.94465 cumulative IPC: 2.44529 (Simulation time: 0 hr 3 min 4 sec) 
Heartbeat CPU  3 instructions:   38000000 cycles:   13934014 heartbeat IPC: 2.99703 cumulative IPC: 2.72714 (Simulation time: 0 hr 3 min 4 sec) 
Heartbeat CPU  0 instructions:   37000003 cycles:   13954244 heartbeat IPC: 3.02252 cumulative IPC: 2.65152 (Simulation time: 0 hr 3 min 5 sec) 
Heartbeat CPU  2 instructions:   35000000 cycles:   13991653 heartbeat IPC: 3.00631 cumulative IPC: 2.50149 (Simulation time: 0 hr 3 min 5 sec) 
Heartbeat CPU  3 instructions:   39000003 cycles:   14265991 heartbeat IPC: 3.01227 cumulative IPC: 2.73377 (Simulation time: 0 hr 3 min 9 sec) 
Heartbeat CPU  1 instructions:   35000001 cycles:   14333477 heartbeat IPC: 2.32994 cumulative IPC: 2.44184 (Simulation time: 0 hr 3 min 9 sec) 
Heartbeat CPU  0 instructions:   38000000 cycles:   14342114 heartbeat IPC: 2.57818 cumulative IPC: 2.64954 (Simulation time: 0 hr 3 min 10 sec) 
Heartbeat CPU  2 instructions:   36000000 cycles:   14486378 heartbeat IPC: 2.02132 cumulative IPC: 2.48509 (Simulation time: 0 hr 3 min 11 sec) 
Heartbeat CPU  3 instructions:   40000000 cycles:   14648122 heartbeat IPC: 2.61690 cumulative IPC: 2.73073 (Simulation time: 0 hr 3 min 13 sec) 
Heartbeat CPU  0 instructions:   39000002 cycles:   14677164 heartbeat IPC: 2.98464 cumulative IPC: 2.65719 (Simulation time: 0 hr 3 min 13 sec) 
Heartbeat CPU  2 instructions:   37000003 cycles:   14916964 heartbeat IPC: 2.32242 cumulative IPC: 2.48040 (Simulation time: 0 hr 3 min 16 sec) 
Heartbeat CPU  0 instructions:   40000000 cycles:   15012508 heartbeat IPC: 2.98201 cumulative IPC: 2.66444 (Simulation time: 0 hr 3 min 17 sec) 
Heartbeat CPU  3 instructions:   41000002 cycles:   15019770 heartbeat IPC: 2.69072 cumulative IPC: 2.72974 (Simulation time: 0 hr 3 min 17 sec) 
Heartbeat CPU  1 instructions:   36000000 cycles:   15063399 heartbeat IPC: 1.37001 cumulative IPC: 2.38990 (Simulation time: 0 hr 3 min 18 sec) 
Heartbeat CPU  2 instructions:   38000000 cycles:   15251428 heartbeat IPC: 2.98985 cumulative IPC: 2.49157 (Simulation time: 0 hr 3 min 21 sec) 
Heartbeat CPU  0 instructions:   41000002 cycles:   15344952 heartbeat IPC: 3.00803 cumulative IPC: 2.67189 (Simulation time: 0 hr 3 min 22 sec) 
Heartbeat CPU  3 instructions:   42000003 cycles:   15353342 heartbeat IPC: 2.99786 cumulative IPC: 2.73556 (Simulation time: 0 hr 3 min 22 sec) 
Heartbeat CPU  1 instructions:   37000000 cycles:   15395837 heartbeat IPC: 3.00808 cumulative IPC: 2.40325 (Simulation time: 0 hr 3 min 23 sec) 
Heartbeat CPU  2 instructions:   39000002 cycles:   15651171 heartbeat IPC: 2.50161 cumulative IPC: 2.49183 (Simulation time: 0 hr 3 min 26 sec) 
Heartbeat CPU  1 instructions:   38000003 cycles:   15781866 heartbeat IPC: 2.59049 cumulative IPC: 2.40783 (Simulation time: 0 hr 3 min 27 sec) 
Heartbeat CPU  3 instructions:   43000002 cycles:   15826121 heartbeat IPC: 2.11515 cumulative IPC: 2.71703 (Simulation time: 0 hr 3 min 28 sec) 
Heartbeat CPU  2 instructions:   40000000 cycles:   15984867 heartbeat IPC: 2.99673 cumulative IPC: 2.50237 (Simulation time: 0 hr 3 min 30 sec) 
Heartbeat CPU  0 instructions:   42000001 cycles:   16036017 heartbeat IPC: 1.44704 cumulative IPC: 2.61910 (Simulation time: 0 hr 3 min 30 sec) 
Heartbeat CPU  3 instructions:   44000000 cycles:   16173562 heartbeat IPC: 2.87818 cumulative IPC: 2.72049 (Simulation time: 0 hr 3 min 32 sec) 
Heartbeat CPU  1 instructions:   39000002 cycles:   16301114 heartbeat IPC: 1.92586 cumulative IPC: 2.39247 (Simulation time: 0 hr 3 min 34 sec) 
Heartbeat CPU  2 instructions:   41000001 cycles:   16318449 heartbeat IPC: 2.99777 cumulative IPC: 2.51249 (Simulation time: 0 hr 3 min 34 sec) 
Heartbeat CPU  0 instructions:   43000000 cycles:   16430569 heartbeat IPC: 2.53452 cumulative IPC: 2.61707 (Simulation time: 0 hr 3 min 36 sec) 
Heartbeat CPU  3 instructions:   45000001 cycles:   16507527 heartbeat IPC: 2.99433 cumulative IPC: 2.72603 (Simulation time: 0 hr 3 min 37 sec) 
Heartbeat CPU  2 instructions:   42000003 cycles:   16641381 heartbeat IPC: 3.09663 cumulative IPC: 2.52383 (Simulation time: 0 hr 3 min 39 sec) 
Heartbeat CPU  1 instructions:   40000000 cycles:   16693013 heartbeat IPC: 2.55167 cumulative IPC: 2.39621 (Simulation time: 0 hr 3 min 40 sec) 
Heartbeat CPU  0 instructions:   44000000 cycles:   16804784 heartbeat IPC: 2.67226 cumulative IPC: 2.61830 (Simulation time: 0 hr 3 min 41 sec) 
Heartbeat CPU  3 instructions:   46000003 cycles:   16858202 heartbeat IPC: 2.85165 cumulative IPC: 2.72864 (Simulation time: 0 hr 3 min 42 sec) 
Heartbeat CPU  2 instructions:   43000001 cycles:   16976476 heartbeat IPC: 2.98422 cumulative IPC: 2.53292 (Simulation time: 0 hr 3 min 44 sec) 
Heartbeat CPU  1 instructions:   41000003 cycles:   17027518 heartbeat IPC: 2.98950 cumulative IPC: 2.40787 (Simulation time: 0 hr 3 min 44 sec) 
Heartbeat CPU  3 instructions:   47000000 cycles:   17181596 heartbeat IPC: 3.09219 cumulative IPC: 2.73549 (Simulation time: 0 hr 3 min 47 sec) 
Heartbeat CPU  0 instructions:   45000000 cycles:   17273932 heartbeat IPC: 2.13152 cumulative IPC: 2.60508 (Simulation time: 0 hr 3 min 48 sec) 
Heartbeat CPU  2 instructions:   44000000 cycles:   17307462 heartbeat IPC: 3.02127 cumulative IPC: 2.54226 (Simulation time: 0 hr 3 min 48 sec) 
Heartbeat CPU  1 instructions:   42000002 cycles:   17515547 heartbeat IPC: 2.04906 cumulative IPC: 2.39787 (Simulation time: 0 hr 3 min 51 sec) 
Heartbeat CPU  3 instructions:   48000000 cycles:   17515566 heartbeat IPC: 2.99428 cumulative IPC: 2.74042 (Simulation time: 0 hr 3 min 51 sec) 
Heartbeat CPU  0 instructions:   46000000 cycles:   17727482 heartbeat IPC: 2.20483 cumulative IPC: 2.59484 (Simulation time: 0 hr 3 min 53 sec) 
Heartbeat CPU  2 instructions:   45000000 cycles:   17729092 heartbeat IPC: 2.37175 cumulative IPC: 2.53820 (Simulation time: 0 hr 3 min 53 sec) 
Heartbeat CPU  3 instructions:   49000002 cycles:   17929157 heartbeat IPC: 2.41785 cumulative IPC: 2.73298 (Simulation time: 0 hr 3 min 56 sec) 
Heartbeat CPU  0 instructions:   47000003 cycles:   18062326 heartbeat IPC: 2.98647 cumulative IPC: 2.60210 (Simulation time: 0 hr 3 min 57 sec) 
Heartbeat CPU  1 instructions:   43000000 cycles:   18103937 heartbeat IPC: 1.69955 cumulative IPC: 2.37517 (Simulation time: 0 hr 3 min 58 sec) 
Heartbeat CPU  3 instructions:   50000003 cycles:   18246018 heartbeat IPC: 3.15596 cumulative IPC: 2.74032 (Simulation time: 0 hr 4 min 0 sec) 
Heartbeat CPU  2 instructions:   46000002 cycles:   18266905 heartbeat IPC: 1.85939 cumulative IPC: 2.51822 (Simulation time: 0 hr 4 min 0 sec) 
Heartbeat CPU  0 instructions:   48000000 cycles:   18394290 heartbeat IPC: 3.01237 cumulative IPC: 2.60951 (Simulation time: 0 hr 4 min 2 sec) 
Heartbeat CPU  1 instructions:   44000000 cycles:   18459520 heartbeat IPC: 2.81228 cumulative IPC: 2.38359 (Simulation time: 0 hr 4 min 3 sec) 
Heartbeat CPU  3 instructions:   51000002 cycles:   18577263 heartbeat IPC: 3.01891 cumulative IPC: 0.05383 (Simulation time: 0 hr 4 min 4 sec) 
Heartbeat CPU  0 instructions:   49000003 cycles:   18727407 heartbeat IPC: 3.00196 cumulative IPC: 2.61649 (Simulation time: 0 hr 4 min 6 sec) 
Heartbeat CPU  1 instructions:   45000003 cycles:   18793185 heartbeat IPC: 2.99703 cumulative IPC: 2.39449 (Simulation time: 0 hr 4 min 7 sec) 
Heartbeat CPU  2 instructions:   47000002 cycles:   18829785 heartbeat IPC: 1.77658 cumulative IPC: 2.49605 (Simulation time: 0 hr 4 min 8 sec) 
Heartbeat CPU  3 instructions:   52000000 cycles:   19016603 heartbeat IPC: 2.27614 cumulative IPC: 0.10517 (Simulation time: 0 hr 4 min 10 sec) 
Heartbeat CPU  0 instructions:   50000002 cycles:   19041781 heartbeat IPC: 3.18092 cumulative IPC: 2.62580 (Simulation time: 0 hr 4 min 11 sec) 
Heartbeat CPU  1 instructions:   46000002 cycles:   19151585 heartbeat IPC: 2.79018 cumulative IPC: 2.40189 (Simulation time: 0 hr 4 min 12 sec) 
Heartbeat CPU  2 instructions:   48000000 cycles:   19238583 heartbeat IPC: 2.44619 cumulative IPC: 2.49499 (Simulation time: 0 hr 4 min 13 sec) 
Heartbeat CPU  0 instructions:   51000003 cycles:   19364056 heartbeat IPC: 3.10294 cumulative IPC: 0.05164 (Simulation time: 0 hr 4 min 15 sec) 
Heartbeat CPU  3 instructions:   53000000 cycles:   19471026 heartbeat IPC: 2.20059 cumulative IPC: 0.15408 (Simulation time: 0 hr 4 min 17 sec) 
Heartbeat CPU  1 instructions:   47000002 cycles:   19509904 heartbeat IPC: 2.79081 cumulative IPC: 2.40903 (Simulation time: 0 hr 4 min 17 sec) 
Heartbeat CPU  2 instructions:   49000000 cycles:   19579100 heartbeat IPC: 2.93671 cumulative IPC: 2.50267 (Simulation time: 0 hr 4 min 18 sec) 
Heartbeat CPU  0 instructions:   52000000 cycles:   19697563 heartbeat IPC: 2.99843 cumulative IPC: 0.10154 (Simulation time: 0 hr 4 min 20 sec) 
Heartbeat CPU  1 instructions:   48000000 cycles:   19846055 heartbeat IPC: 2.97485 cumulative IPC: 2.41862 (Simulation time: 0 hr 4 min 22 sec) 
Heartbeat CPU  3 instructions:   54000000 cycles:   19861279 heartbeat IPC: 2.56244 cumulative IPC: 0.20140 (Simulation time: 0 hr 4 min 22 sec) 
Heartbeat CPU  2 instructions:   50000002 cycles:   19944441 heartbeat IPC: 2.73717 cumulative IPC: 2.50696 (Simulation time: 0 hr 4 min 23 sec) 
Heartbeat CPU  0 instructions:   53000001 cycles:   20076771 heartbeat IPC: 2.63708 cumulative IPC: 0.14943 (Simulation time: 0 hr 4 min 25 sec) 
Heartbeat CPU  3 instructions:   55000000 cycles:   20203309 heartbeat IPC: 2.92372 cumulative IPC: 0.24748 (Simulation time: 0 hr 4 min 27 sec) 
Heartbeat CPU  2 instructions:   51000000 cycles:   20275554 heartbeat IPC: 3.02011 cumulative IPC: 0.04932 (Simulation time: 0 hr 4 min 28 sec) 
Heartbeat CPU  1 instructions:   49000001 cycles:   20480144 heartbeat IPC: 1.57707 cumulative IPC: 2.39256 (Simulation time: 0 hr 4 min 30 sec) 
Heartbeat CPU  3 instructions:   56000000 cycles:   20539997 heartbeat IPC: 2.97011 cumulative IPC: 0.29211 (Simulation time: 0 hr 4 min 31 sec) 
Heartbeat CPU  0 instructions:   54000001 cycles:   20574546 heartbeat IPC: 2.00894 cumulative IPC: 0.19442 (Simulation time: 0 hr 4 min 31 sec) 
Heartbeat CPU  2 instructions:   52000000 cycles:   20716528 heartbeat IPC: 2.26771 cumulative IPC: 0.09654 (Simulation time: 0 hr 4 min 33 sec) 
Heartbeat CPU  3 instructions:   57000001 cycles:   20877383 heartbeat IPC: 2.96397 cumulative IPC: 0.33529 (Simulation time: 0 hr 4 min 35 sec) 
Heartbeat CPU  1 instructions:   50000003 cycles:   20922832 heartbeat IPC: 2.25893 cumulative IPC: 2.38973 (Simulation time: 0 hr 4 min 35 sec) 

Warmup complete CPU  0 instructions:   54561158 cycles:   20922832 (Simulation time: 0 hr 4 min 35 sec) 
Warmup complete CPU  1 instructions:   50000003 cycles:   20922832 (Simulation time: 0 hr 4 min 35 sec) 
Warmup complete CPU  2 instructions:   52235955 cycles:   20922832 (Simulation time: 0 hr 4 min 35 sec) 
Warmup complete CPU  3 instructions:   57138198 cycles:   20922831 (Simulation time: 0 hr 4 min 35 sec) 

Heartbeat CPU  0 instructions:   55000000 cycles:   21820290 heartbeat IPC: 0.80273 cumulative IPC: 0.48898 (Simulation time: 0 hr 4 min 38 sec) 
Heartbeat CPU  3 instructions:   58000001 cycles:   23023423 heartbeat IPC: 0.46597 cumulative IPC: 0.41027 (Simulation time: 0 hr 4 min 41 sec) 
Heartbeat CPU  1 instructions:   51000000 cycles:   23363093 heartbeat IPC: 0.40979 cumulative IPC: 0.40979 (Simulation time: 0 hr 4 min 42 sec) 
Heartbeat CPU  2 instructions:   53000001 cycles:   23801861 heartbeat IPC: 0.32411 cumulative IPC: 0.26538 (Simulation time: 0 hr 4 min 43 sec) 
Heartbeat CPU  0 instructions:   56000000 cycles:   24553619 heartbeat IPC: 0.36585 cumulative IPC: 0.39629 (Simulation time: 0 hr 4 min 45 sec) 
Heartbeat CPU  3 instructions:   59000002 cycles:   25476178 heartbeat IPC: 0.40771 cumulative IPC: 0.40889 (Simulation time: 0 hr 4 min 48 sec) 
Heartbeat CPU  2 instructions:   54000001 cycles:   26274410 heartbeat IPC: 0.40444 cumulative IPC: 0.32963 (Simulation time: 0 hr 4 min 50 sec) 
Heartbeat CPU  1 instructions:   52000000 cycles:   26922044 heartbeat IPC: 0.28098 cumulative IPC: 0.33338 (Simulation time: 0 hr 4 min 52 sec) 
Heartbeat CPU  0 instructions:   57000000 cycles:   27220614 heartbeat IPC: 0.37495 cumulative IPC: 0.38725 (Simulation time: 0 hr 4 min 53 sec) 
Heartbeat CPU  3 instructions:   60000000 cycles:   27906383 heartbeat IPC: 0.41149 cumulative IPC: 0.40979 (Simulation time: 0 hr 4 min 55 sec) 
Heartbeat CPU  2 instructions:   55000003 cycles:   28493965 heartbeat IPC: 0.45054 cumulative IPC: 0.36508 (Simulation time: 0 hr 4 min 57 sec) 
Heartbeat CPU  1 instructions:   53000003 cycles:   29397907 heartbeat IPC: 0.40390 cumulative IPC: 0.35398 (Simulation time: 0 hr 4 min 59 sec) 
Heartbeat CPU  0 instructions:   58000000 cycles:   29899054 heartbeat IPC: 0.37335 cumulative IPC: 0.38311 (Simulation time: 0 hr 5 min 0 sec) 
Heartbeat CPU  2 instructions:   56000000 cycles:   31051837 heartbeat IPC: 0.39095 cumulative IPC: 0.37161 (Simulation time: 0 hr 5 min 3 sec) 
Heartbeat CPU  1 instructions:   54000000 cycles:   32112693 heartbeat IPC: 0.36835 cumulative IPC: 0.35747 (Simulation time: 0 hr 5 min 6 sec) 
Heartbeat CPU  3 instructions:   61000002 cycles:   32458280 heartbeat IPC: 0.21969 cumulative IPC: 0.33478 (Simulation time: 0 hr 5 min 7 sec) 
Heartbeat CPU  0 instructions:   59000003 cycles:   32606887 heartbeat IPC: 0.36930 cumulative IPC: 0.37991 (Simulation time: 0 hr 5 min 8 sec) 
Heartbeat CPU  2 instructions:   57000003 cycles:   33845995 heartbeat IPC: 0.35789 cumulative IPC: 0.36864 (Simulation time: 0 hr 5 min 11 sec) 
Heartbeat CPU  1 instructions:   55000001 cycles:   34198368 heartbeat IPC: 0.47946 cumulative IPC: 0.37663 (Simulation time: 0 hr 5 min 12 sec) 
Heartbeat CPU  0 instructions:   60000000 cycles:   35284626 heartbeat IPC: 0.37345 cumulative IPC: 0.37870 (Simulation time: 0 hr 5 min 15 sec) 
Heartbeat CPU  2 instructions:   58000002 cycles:   36332124 heartbeat IPC: 0.40223 cumulative IPC: 0.37406 (Simulation time: 0 hr 5 min 18 sec) 
Heartbeat CPU  3 instructions:   62000002 cycles:   36478582 heartbeat IPC: 0.24874 cumulative IPC: 0.31254 (Simulation time: 0 hr 5 min 18 sec) 
Heartbeat CPU  1 instructions:   56000000 cycles:   36500332 heartbeat IPC: 0.43441 cumulative IPC: 0.38517 (Simulation time: 0 hr 5 min 19 sec) 
Heartbeat CPU  0 instructions:   61000003 cycles:   38247866 heartbeat IPC: 0.33747 cumulative IPC: 0.37165 (Simulation time: 0 hr 5 min 23 sec) 
Heartbeat CPU  2 instructions:   59000001 cycles:   38732526 heartbeat IPC: 0.41660 cumulative IPC: 0.37980 (Simulation time: 0 hr 5 min 24 sec) 
Heartbeat CPU  1 instructions:   57000000 cycles:   38827502 heartbeat IPC: 0.42971 cumulative IPC: 0.39096 (Simulation time: 0 hr 5 min 25 sec) 
Heartbeat CPU  0 instructions:   62000002 cycles:   41202750 heartbeat IPC: 0.33842 cumulative IPC: 0.36681 (Simulation time: 0 hr 5 min 31 sec) 
Heartbeat CPU  2 instructions:   60000000 cycles:   41443010 heartbeat IPC: 0.36894 cumulative IPC: 0.37836 (Simulation time: 0 hr 5 min 31 sec) 
Heartbeat CPU  1 instructions:   58000000 cycles:   41487611 heartbeat IPC: 0.37592 cumulative IPC: 0.38901 (Simulation time: 0 hr 5 min 31 sec) 
Heartbeat CPU  3 instructions:   63000001 cycles:   42667417 heartbeat IPC: 0.16158 cumulative IPC: 0.26958 (Simulation time: 0 hr 5 min 35 sec) 
Heartbeat CPU  0 instructions:   63000002 cycles:   43780815 heartbeat IPC: 0.38789 cumulative IPC: 0.36919 (Simulation time: 0 hr 5 min 37 sec) 
Heartbeat CPU  1 instructions:   59000003 cycles:   43789920 heartbeat IPC: 0.43435 cumulative IPC: 0.39358 (Simulation time: 0 hr 5 min 37 sec) 
Heartbeat CPU  2 instructions:   61000000 cycles:   43824109 heartbeat IPC: 0.41997 cumulative IPC: 0.38269 (Simulation time: 0 hr 5 min 38 sec) 
Heartbeat CPU  1 instructions:   60000000 cycles:   46099844 heartbeat IPC: 0.43291 cumulative IPC: 0.39719 (Simulation time: 0 hr 5 min 44 sec) 
Heartbeat CPU  2 instructions:   62000001 cycles:   46289425 heartbeat IPC: 0.40563 cumulative IPC: 0.38492 (Simulation time: 0 hr 5 min 45 sec) 
Heartbeat CPU  0 instructions:   64000000 cycles:   46447486 heartbeat IPC: 0.37500 cumulative IPC: 0.36979 (Simulation time: 0 hr 5 min 45 sec) 
Heartbeat CPU  3 instructions:   64000000 cycles:   46742308 heartbeat IPC: 0.24541 cumulative IPC: 0.26576 (Simulation time: 0 hr 5 min 46 sec) 
Heartbeat CPU  1 instructions:   61000002 cycles:   48647084 heartbeat IPC: 0.39258 cumulative IPC: 0.39676 (Simulation time: 0 hr 5 min 51 sec) 
Heartbeat CPU  2 instructions:   63000000 cycles:   48719166 heartbeat IPC: 0.41157 cumulative IPC: 0.38725 (Simulation time: 0 hr 5 min 52 sec) 
Heartbeat CPU  0 instructions:   65000000 cycles:   48824034 heartbeat IPC: 0.42078 cumulative IPC: 0.37414 (Simulation time: 0 hr 5 min 52 sec) 
Heartbeat CPU  3 instructions:   65000001 cycles:   49697777 heartbeat IPC: 0.33836 cumulative IPC: 0.27322 (Simulation time: 0 hr 5 min 54 sec) 
Heartbeat CPU  2 instructions:   64000000 cycles:   51375678 heartbeat IPC: 0.37643 cumulative IPC: 0.38630 (Simulation time: 0 hr 5 min 59 sec) 
Heartbeat CPU  1 instructions:   62000001 cycles:   51601904 heartbeat IPC: 0.33843 cumulative IPC: 0.39115 (Simulation time: 0 hr 6 min 0 sec) 
Heartbeat CPU  0 instructions:   66000000 cycles:   51844508 heartbeat IPC: 0.33107 cumulative IPC: 0.36993 (Simulation time: 0 hr 6 min 0 sec) 
Heartbeat CPU  3 instructions:   66000000 cycles:   52555002 heartbeat IPC: 0.34999 cumulative IPC: 0.28015 (Simulation time: 0 hr 6 min 2 sec) 
Heartbeat CPU  2 instructions:   65000003 cycles:   54227710 heartbeat IPC: 0.35063 cumulative IPC: 0.38325 (Simulation time: 0 hr 6 min 7 sec) 
Heartbeat CPU  0 instructions:   67000002 cycles:   54668797 heartbeat IPC: 0.35407 cumulative IPC: 0.36860 (Simulation time: 0 hr 6 min 8 sec) 
Heartbeat CPU  1 instructions:   63000000 cycles:   54946401 heartbeat IPC: 0.29900 cumulative IPC: 0.38209 (Simulation time: 0 hr 6 min 9 sec) 
Heartbeat CPU  3 instructions:   67000001 cycles:   56071810 heartbeat IPC: 0.28435 cumulative IPC: 0.28057 (Simulation time: 0 hr 6 min 12 sec) 
Heartbeat CPU  2 instructions:   66000001 cycles:   56569285 heartbeat IPC: 0.42706 cumulative IPC: 0.38613 (Simulation time: 0 hr 6 min 13 sec) 
Heartbeat CPU  0 instructions:   68000000 cycles:   57700876 heartbeat IPC: 0.32981 cumulative IPC: 0.36540 (Simulation time: 0 hr 6 min 16 sec) 
Heartbeat CPU  1 instructions:   64000000 cycles:   58017891 heartbeat IPC: 0.32557 cumulative IPC: 0.37741 (Simulation time: 0 hr 6 min 17 sec) 
Heartbeat CPU  3 instructions:   68000000 cycles:   58595198 heartbeat IPC: 0.39629 cumulative IPC: 0.28832 (Simulation time: 0 hr 6 min 19 sec) 
Heartbeat CPU  2 instructions:   67000001 cycles:   58756766 heartbeat IPC: 0.45715 cumulative IPC: 0.39023 (Simulation time: 0 hr 6 min 20 sec) 
Heartbeat CPU  0 instructions:   69000002 cycles:   60216225 heartbeat IPC: 0.39756 cumulative IPC: 0.36746 (Simulation time: 0 hr 6 min 24 sec) 
Heartbeat CPU  1 instructions:   65000001 cycles:   60540580 heartbeat IPC: 0.39640 cumulative IPC: 0.37862 (Simulation time: 0 hr 6 min 25 sec) 
Heartbeat CPU  3 instructions:   69000000 cycles:   60872824 heartbeat IPC: 0.43905 cumulative IPC: 0.29692 (Simulation time: 0 hr 6 min 26 sec) 
Heartbeat CPU  2 instructions:   68000000 cycles:   61147323 heartbeat IPC: 0.41831 cumulative IPC: 0.39190 (Simulation time: 0 hr 6 min 27 sec) 
Heartbeat CPU  0 instructions:   70000001 cycles:   62558123 heartbeat IPC: 0.42700 cumulative IPC: 0.37081 (Simulation time: 0 hr 6 min 31 sec) 
Heartbeat CPU  1 instructions:   66000000 cycles:   63131855 heartbeat IPC: 0.38591 cumulative IPC: 0.37907 (Simulation time: 0 hr 6 min 33 sec) 
Heartbeat CPU  3 instructions:   70000003 cycles:   63418265 heartbeat IPC: 0.39286 cumulative IPC: 0.30266 (Simulation time: 0 hr 6 min 34 sec) 
Heartbeat CPU  2 instructions:   69000002 cycles:   64250645 heartbeat IPC: 0.32224 cumulative IPC: 0.38691 (Simulation time: 0 hr 6 min 36 sec) 
Heartbeat CPU  0 instructions:   71000002 cycles:   64897177 heartbeat IPC: 0.42752 cumulative IPC: 0.37383 (Simulation time: 0 hr 6 min 39 sec) 
Heartbeat CPU  1 instructions:   67000001 cycles:   65531941 heartbeat IPC: 0.41665 cumulative IPC: 0.38109 (Simulation time: 0 hr 6 min 41 sec) 
Heartbeat CPU  3 instructions:   71000001 cycles:   66028951 heartbeat IPC: 0.38304 cumulative IPC: 0.30732 (Simulation time: 0 hr 6 min 42 sec) 
Heartbeat CPU  2 instructions:   70000003 cycles:   66719764 heartbeat IPC: 0.40500 cumulative IPC: 0.38789 (Simulation time: 0 hr 6 min 44 sec) 
Heartbeat CPU  0 instructions:   72000000 cycles:   67441922 heartbeat IPC: 0.39297 cumulative IPC: 0.37487 (Simulation time: 0 hr 6 min 46 sec) 
Heartbeat CPU  1 instructions:   68000000 cycles:   68110817 heartbeat IPC: 0.38777 cumulative IPC: 0.38145 (Simulation time: 0 hr 6 min 48 sec) 
Heartbeat CPU  3 instructions:   72000000 cycles:   68581554 heartbeat IPC: 0.39176 cumulative IPC: 0.31184 (Simulation time: 0 hr 6 min 50 sec) 
Heartbeat CPU  2 instructions:   71000003 cycles:   68980785 heartbeat IPC: 0.44228 cumulative IPC: 0.39045 (Simulation time: 0 hr 6 min 51 sec) 
Heartbeat CPU  0 instructions:   73000000 cycles:   70234103 heartbeat IPC: 0.35814 cumulative IPC: 0.37393 (Simulation time: 0 hr 6 min 55 sec) 
Heartbeat CPU  1 instructions:   69000001 cycles:   70831519 heartbeat IPC: 0.36755 cumulative IPC: 0.38070 (Simulation time: 0 hr 6 min 56 sec) 
Heartbeat CPU  2 instructions:   72000000 cycles:   71158249 heartbeat IPC: 0.45925 cumulative IPC: 0.39343 (Simulation time: 0 hr 6 min 57 sec) 
Heartbeat CPU  3 instructions:   73000002 cycles:   71383153 heartbeat IPC: 0.35694 cumulative IPC: 0.31434 (Simulation time: 0 hr 6 min 58 sec) 
Heartbeat CPU  0 instructions:   74000002 cycles:   72640007 heartbeat IPC: 0.41565 cumulative IPC: 0.37587 (Simulation time: 0 hr 7 min 1 sec) 
Heartbeat CPU  1 instructions:   70000003 cycles:   73429343 heartbeat IPC: 0.38494 cumulative IPC: 0.38091 (Simulation time: 0 hr 7 min 4 sec) 
Heartbeat CPU  3 instructions:   74000003 cycles:   73899293 heartbeat IPC: 0.39743 cumulative IPC: 0.31829 (Simulation time: 0 hr 7 min 5 sec) 
Heartbeat CPU  2 instructions:   73000000 cycles:   73999819 heartbeat IPC: 0.35192 cumulative IPC: 0.39121 (Simulation time: 0 hr 7 min 6 sec) 
Heartbeat CPU  0 instructions:   75000002 cycles:   74877771 heartbeat IPC: 0.44687 cumulative IPC: 0.37881 (Simulation time: 0 hr 7 min 8 sec) 
Heartbeat CPU  1 instructions:   71000002 cycles:   76332617 heartbeat IPC: 0.34444 cumulative IPC: 0.37899 (Simulation time: 0 hr 7 min 13 sec) 
Heartbeat CPU  2 instructions:   74000001 cycles:   76385362 heartbeat IPC: 0.41919 cumulative IPC: 0.39241 (Simulation time: 0 hr 7 min 13 sec) 
Heartbeat CPU  0 instructions:   76000000 cycles:   76928991 heartbeat IPC: 0.48751 cumulative IPC: 0.38279 (Simulation time: 0 hr 7 min 14 sec) 
Heartbeat CPU  3 instructions:   75000002 cycles:   77281040 heartbeat IPC: 0.29570 cumulative IPC: 0.31693 (Simulation time: 0 hr 7 min 15 sec) 
Heartbeat CPU  2 instructions:   75000002 cycles:   78725614 heartbeat IPC: 0.42730 cumulative IPC: 0.39382 (Simulation time: 0 hr 7 min 20 sec) 
Heartbeat CPU  1 instructions:   72000000 cycles:   78835377 heartbeat IPC: 0.39956 cumulative IPC: 0.37988 (Simulation time: 0 hr 7 min 20 sec) 
Heartbeat CPU  3 instructions:   76000000 cycles:   79490704 heartbeat IPC: 0.45256 cumulative IPC: 0.32205 (Simulation time: 0 hr 7 min 22 sec) 
Heartbeat CPU  0 instructions:   77000001 cycles:   79689419 heartbeat IPC: 0.36226 cumulative IPC: 0.38183 (Simulation time: 0 hr 7 min 23 sec) 
Heartbeat CPU  2 instructions:   76000000 cycles:   80745209 heartbeat IPC: 0.49515 cumulative IPC: 0.39724 (Simulation time: 0 hr 7 min 26 sec) 
Heartbeat CPU  1 instructions:   73000003 cycles:   81167563 heartbeat IPC: 0.42878 cumulative IPC: 0.38178 (Simulation time: 0 hr 7 min 27 sec) 
Heartbeat CPU  3 instructions:   77000002 cycles:   82200307 heartbeat IPC: 0.36906 cumulative IPC: 0.32413 (Simulation time: 0 hr 7 min 31 sec) 
Heartbeat CPU  0 instructions:   78000001 cycles:   82232622 heartbeat IPC: 0.39320 cumulative IPC: 0.38230 (Simulation time: 0 hr 7 min 31 sec) 
Heartbeat CPU  2 instructions:   77000000 cycles:   83065440 heartbeat IPC: 0.43099 cumulative IPC: 0.39850 (Simulation time: 0 hr 7 min 33 sec) 
Heartbeat CPU  1 instructions:   74000003 cycles:   83534765 heartbeat IPC: 0.42244 cumulative IPC: 0.38331 (Simulation time: 0 hr 7 min 34 sec) 
Heartbeat CPU  3 instructions:   78000003 cycles:   84323553 heartbeat IPC: 0.47098 cumulative IPC: 0.32905 (Simulation time: 0 hr 7 min 37 sec) 
Heartbeat CPU  0 instructions:   79000000 cycles:   84832595 heartbeat IPC: 0.38462 cumulative IPC: 0.38240 (Simulation time: 0 hr 7 min 38 sec) 
Heartbeat CPU  2 instructions:   78000001 cycles:   86138920 heartbeat IPC: 0.32536 cumulative IPC: 0.39506 (Simulation time: 0 hr 7 min 42 sec) 
Heartbeat CPU  1 instructions:   75000002 cycles:   86198306 heartbeat IPC: 0.37544 cumulative IPC: 0.38299 (Simulation time: 0 hr 7 min 42 sec) 
Heartbeat CPU  3 instructions:   79000003 cycles:   86780714 heartbeat IPC: 0.40697 cumulative IPC: 0.33195 (Simulation time: 0 hr 7 min 44 sec) 
Heartbeat CPU  0 instructions:   80000000 cycles:   87751876 heartbeat IPC: 0.34255 cumulative IPC: 0.38066 (Simulation time: 0 hr 7 min 47 sec) 
Heartbeat CPU  2 instructions:   79000001 cycles:   88738438 heartbeat IPC: 0.38469 cumulative IPC: 0.39466 (Simulation time: 0 hr 7 min 50 sec) 
Heartbeat CPU  3 instructions:   80000000 cycles:   88975901 heartbeat IPC: 0.45554 cumulative IPC: 0.33594 (Simulation time: 0 hr 7 min 50 sec) 
Heartbeat CPU  1 instructions:   76000000 cycles:   89438169 heartbeat IPC: 0.30865 cumulative IPC: 0.37948 (Simulation time: 0 hr 7 min 52 sec) 
Heartbeat CPU  0 instructions:   81000001 cycles:   90051121 heartbeat IPC: 0.43493 cumulative IPC: 0.38246 (Simulation time: 0 hr 7 min 54 sec) 
Heartbeat CPU  2 instructions:   80000000 cycles:   91201392 heartbeat IPC: 0.40602 cumulative IPC: 0.39506 (Simulation time: 0 hr 7 min 57 sec) 
Heartbeat CPU  3 instructions:   81000000 cycles:   91467927 heartbeat IPC: 0.40128 cumulative IPC: 0.33825 (Simulation time: 0 hr 7 min 58 sec) 
Heartbeat CPU  1 instructions:   77000003 cycles:   92491819 heartbeat IPC: 0.32748 cumulative IPC: 0.37726 (Simulation time: 0 hr 8 min 1 sec) 
Heartbeat CPU  0 instructions:   82000003 cycles:   92836363 heartbeat IPC: 0.35904 cumulative IPC: 0.38155 (Simulation time: 0 hr 8 min 2 sec) 
Heartbeat CPU  3 instructions:   82000000 cycles:   93893613 heartbeat IPC: 0.41225 cumulative IPC: 0.34071 (Simulation time: 0 hr 8 min 5 sec) 
Heartbeat CPU  2 instructions:   81000001 cycles:   94314698 heartbeat IPC: 0.32120 cumulative IPC: 0.39192 (Simulation time: 0 hr 8 min 6 sec) 
Heartbeat CPU  0 instructions:   83000002 cycles:   95132884 heartbeat IPC: 0.43544 cumulative IPC: 0.38322 (Simulation time: 0 hr 8 min 9 sec) 
Heartbeat CPU  1 instructions:   78000000 cycles:   95150713 heartbeat IPC: 0.37610 cumulative IPC: 0.37722 (Simulation time: 0 hr 8 min 9 sec) 
Heartbeat CPU  2 instructions:   82000003 cycles:   96502168 heartbeat IPC: 0.45715 cumulative IPC: 0.39381 (Simulation time: 0 hr 8 min 12 sec) 
Heartbeat CPU  1 instructions:   79000002 cycles:   97309578 heartbeat IPC: 0.46321 cumulative IPC: 0.37965 (Simulation time: 0 hr 8 min 15 sec) 
Heartbeat CPU  3 instructions:   83000002 cycles:   97796196 heartbeat IPC: 0.25624 cumulative IPC: 0.33642 (Simulation time: 0 hr 8 min 16 sec) 
Heartbeat CPU  0 instructions:   84000000 cycles:   97847094 heartbeat IPC: 0.36843 cumulative IPC: 0.38270 (Simulation time: 0 hr 8 min 16 sec) 
Heartbeat CPU  2 instructions:   83000003 cycles:   98779611 heartbeat IPC: 0.43909 cumulative IPC: 0.39514 (Simulation time: 0 hr 8 min 19 sec) 
Heartbeat CPU  1 instructions:   80000000 cycles:   99808513 heartbeat IPC: 0.40017 cumulative IPC: 0.38030 (Simulation time: 0 hr 8 min 22 sec) 
Heartbeat CPU  3 instructions:   84000000 cycles:  100628854 heartbeat IPC: 0.35302 cumulative IPC: 0.33701 (Simulation time: 0 hr 8 min 24 sec) 
Heartbeat CPU  0 instructions:   85000001 cycles:  100635534 heartbeat IPC: 0.35862 cumulative IPC: 0.38186 (Simulation time: 0 hr 8 min 24 sec) 
Heartbeat CPU  2 instructions:   84000000 cycles:  101057686 heartbeat IPC: 0.43897 cumulative IPC: 0.39638 (Simulation time: 0 hr 8 min 26 sec) 
Heartbeat CPU  3 instructions:   85000000 cycles:  102824541 heartbeat IPC: 0.45544 cumulative IPC: 0.34019 (Simulation time: 0 hr 8 min 31 sec) 
Heartbeat CPU  0 instructions:   86000001 cycles:  102977399 heartbeat IPC: 0.42701 cumulative IPC: 0.38315 (Simulation time: 0 hr 8 min 31 sec) 
Heartbeat CPU  1 instructions:   81000002 cycles:  102990647 heartbeat IPC: 0.31426 cumulative IPC: 0.37774 (Simulation time: 0 hr 8 min 31 sec) 
Heartbeat CPU  2 instructions:   85000003 cycles:  103796981 heartbeat IPC: 0.36506 cumulative IPC: 0.39535 (Simulation time: 0 hr 8 min 34 sec) 
Heartbeat CPU  0 instructions:   87000000 cycles:  105322746 heartbeat IPC: 0.42638 cumulative IPC: 0.38435 (Simulation time: 0 hr 8 min 38 sec) 
Heartbeat CPU  3 instructions:   86000001 cycles:  105346935 heartbeat IPC: 0.39645 cumulative IPC: 0.34187 (Simulation time: 0 hr 8 min 38 sec) 
Heartbeat CPU  1 instructions:   82000001 cycles:  105558858 heartbeat IPC: 0.38938 cumulative IPC: 0.37809 (Simulation time: 0 hr 8 min 39 sec) 
Heartbeat CPU  2 instructions:   86000002 cycles:  106153845 heartbeat IPC: 0.42429 cumulative IPC: 0.39615 (Simulation time: 0 hr 8 min 41 sec) 
Heartbeat CPU  0 instructions:   88000000 cycles:  107806668 heartbeat IPC: 0.40259 cumulative IPC: 0.38487 (Simulation time: 0 hr 8 min 45 sec) 
Heartbeat CPU  3 instructions:   87000000 cycles:  107889062 heartbeat IPC: 0.39337 cumulative IPC: 0.34337 (Simulation time: 0 hr 8 min 45 sec) 
Heartbeat CPU  2 instructions:   87000003 cycles:  108486121 heartbeat IPC: 0.42877 cumulative IPC: 0.39702 (Simulation time: 0 hr 8 min 47 sec) 
Heartbeat CPU  0 instructions:   89000003 cycles:  110135543 heartbeat IPC: 0.42939 cumulative IPC: 0.38603 (Simulation time: 0 hr 8 min 51 sec) 
Heartbeat CPU  3 instructions:   88000000 cycles:  110465405 heartbeat IPC: 0.38815 cumulative IPC: 0.34466 (Simulation time: 0 hr 8 min 52 sec) 
Heartbeat CPU  1 instructions:   83000003 cycles:  110468390 heartbeat IPC: 0.20369 cumulative IPC: 0.36853 (Simulation time: 0 hr 8 min 52 sec) 
Heartbeat CPU  2 instructions:   88000000 cycles:  110828438 heartbeat IPC: 0.42693 cumulative IPC: 0.39780 (Simulation time: 0 hr 8 min 53 sec) 
Heartbeat CPU  1 instructions:   84000000 cycles:  113012402 heartbeat IPC: 0.39308 cumulative IPC: 0.36921 (Simulation time: 0 hr 9 min 0 sec) 
Heartbeat CPU  0 instructions:   90000000 cycles:  113060548 heartbeat IPC: 0.34188 cumulative IPC: 0.38463 (Simulation time: 0 hr 9 min 0 sec) 
Heartbeat CPU  2 instructions:   89000002 cycles:  113194273 heartbeat IPC: 0.42268 cumulative IPC: 0.39843 (Simulation time: 0 hr 9 min 0 sec) 
Heartbeat CPU  3 instructions:   89000002 cycles:  113299549 heartbeat IPC: 0.35284 cumulative IPC: 0.34491 (Simulation time: 0 hr 9 min 1 sec) 
Heartbeat CPU  2 instructions:   90000001 cycles:  115243147 heartbeat IPC: 0.48807 cumulative IPC: 0.40038 (Simulation time: 0 hr 9 min 7 sec) 
Heartbeat CPU  1 instructions:   85000001 cycles:  115324074 heartbeat IPC: 0.43259 cumulative IPC: 0.37076 (Simulation time: 0 hr 9 min 7 sec) 
Heartbeat CPU  0 instructions:   91000001 cycles:  115622936 heartbeat IPC: 0.39026 cumulative IPC: 0.38478 (Simulation time: 0 hr 9 min 8 sec) 
Heartbeat CPU  3 instructions:   90000003 cycles:  116045009 heartbeat IPC: 0.36424 cumulative IPC: 0.34547 (Simulation time: 0 hr 9 min 9 sec) 
Heartbeat CPU  0 instructions:   92000000 cycles:  118029738 heartbeat IPC: 0.41549 cumulative IPC: 0.38554 (Simulation time: 0 hr 9 min 14 sec) 
Heartbeat CPU  2 instructions:   91000003 cycles:  118462142 heartbeat IPC: 0.31066 cumulative IPC: 0.39742 (Simulation time: 0 hr 9 min 15 sec) 
Heartbeat CPU  3 instructions:   91000003 cycles:  118656935 heartbeat IPC: 0.38286 cumulative IPC: 0.34647 (Simulation time: 0 hr 9 min 16 sec) 
Heartbeat CPU  0 instructions:   93000002 cycles:  120396733 heartbeat IPC: 0.42248 cumulative IPC: 0.38642 (Simulation time: 0 hr 9 min 20 sec) 
Heartbeat CPU  2 instructions:   92000000 cycles:  120979686 heartbeat IPC: 0.39721 cumulative IPC: 0.39741 (Simulation time: 0 hr 9 min 21 sec) 
Heartbeat CPU  1 instructions:   86000001 cycles:  121156697 heartbeat IPC: 0.17145 cumulative IPC: 0.35916 (Simulation time: 0 hr 9 min 22 sec) 
Heartbeat CPU  3 instructions:   92000000 cycles:  121175565 heartbeat IPC: 0.39704 cumulative IPC: 0.34774 (Simulation time: 0 hr 9 min 22 sec) 
Heartbeat CPU  0 instructions:   94000002 cycles:  122987934 heartbeat IPC: 0.38592 cumulative IPC: 0.38641 (Simulation time: 0 hr 9 min 27 sec) 
Heartbeat CPU  2 instructions:   93000001 cycles:  123236207 heartbeat IPC: 0.44316 cumulative IPC: 0.39842 (Simulation time: 0 hr 9 min 27 sec) 
Heartbeat CPU  3 instructions:   93000001 cycles:  124517476 heartbeat IPC: 0.29923 cumulative IPC: 0.34617 (Simulation time: 0 hr 9 min 31 sec) 
Heartbeat CPU  0 instructions:   95000000 cycles:  125338626 heartbeat IPC: 0.42541 cumulative IPC: 0.38729 (Simulation time: 0 hr 9 min 33 sec) 
Heartbeat CPU  2 instructions:   94000003 cycles:  125831763 heartbeat IPC: 0.38527 cumulative IPC: 0.39810 (Simulation time: 0 hr 9 min 34 sec) 
Heartbeat CPU  1 instructions:   87000003 cycles:  127499430 heartbeat IPC: 0.15766 cumulative IPC: 0.34717 (Simulation time: 0 hr 9 min 38 sec) 
Heartbeat CPU  3 instructions:   94000001 cycles:  127792185 heartbeat IPC: 0.30537 cumulative IPC: 0.34492 (Simulation time: 0 hr 9 min 39 sec) 
Heartbeat CPU  0 instructions:   96000000 cycles:  127975612 heartbeat IPC: 0.37922 cumulative IPC: 0.38709 (Simulation time: 0 hr 9 min 39 sec) 
Heartbeat CPU  2 instructions:   95000002 cycles:  128137464 heartbeat IPC: 0.43371 cumulative IPC: 0.39886 (Simulation time: 0 hr 9 min 40 sec) 
Heartbeat CPU  3 instructions:   95000002 cycles:  129948467 heartbeat IPC: 0.46376 cumulative IPC: 0.34727 (Simulation time: 0 hr 9 min 45 sec) 
Heartbeat CPU  0 instructions:   97000001 cycles:  130398536 heartbeat IPC: 0.41272 cumulative IPC: 0.38766 (Simulation time: 0 hr 9 min 46 sec) 
Heartbeat CPU  2 instructions:   96000000 cycles:  130539165 heartbeat IPC: 0.41637 cumulative IPC: 0.39925 (Simulation time: 0 hr 9 min 46 sec) 
Heartbeat CPU  3 instructions:   96000000 cycles:  132306282 heartbeat IPC: 0.42412 cumulative IPC: 0.34890 (Simulation time: 0 hr 9 min 51 sec) 
Heartbeat CPU  0 instructions:   98000003 cycles:  132473358 heartbeat IPC: 0.48197 cumulative IPC: 0.38941 (Simulation time: 0 hr 9 min 52 sec) 
Heartbeat CPU  2 instructions:   97000003 cycles:  132956376 heartbeat IPC: 0.41370 cumulative IPC: 0.39956 (Simulation time: 0 hr 9 min 53 sec) 
Heartbeat CPU  1 instructions:   88000000 cycles:  133706785 heartbeat IPC: 0.16110 cumulative IPC: 0.33693 (Simulation time: 0 hr 9 min 55 sec) 
Heartbeat CPU  2 instructions:   98000002 cycles:  135106335 heartbeat IPC: 0.46512 cumulative IPC: 0.40079 (Simulation time: 0 hr 9 min 59 sec) 
Heartbeat CPU  0 instructions:   99000000 cycles:  135145807 heartbeat IPC: 0.37419 cumulative IPC: 0.38905 (Simulation time: 0 hr 9 min 59 sec) 
Heartbeat CPU  3 instructions:   97000003 cycles:  135436656 heartbeat IPC: 0.31945 cumulative IPC: 0.34810 (Simulation time: 0 hr 10 min 0 sec) 
Heartbeat CPU  1 instructions:   89000000 cycles:  136280141 heartbeat IPC: 0.38860 cumulative IPC: 0.33808 (Simulation time: 0 hr 10 min 2 sec) 
*** Reached end of trace for Core: 0 Repeating trace: /pref/Pythia/CASSANDRA/traces/cassandra_phase0_core0.trace.xz
Heartbeat CPU  0 instructions:  100000000 cycles:  137738071 heartbeat IPC: 0.38576 cumulative IPC: 0.38898 (Simulation time: 0 hr 10 min 6 sec) 
Heartbeat CPU  2 instructions:   99000000 cycles:  137741930 heartbeat IPC: 0.37942 cumulative IPC: 0.40031 (Simulation time: 0 hr 10 min 6 sec) 
Heartbeat CPU  3 instructions:   98000001 cycles:  139045665 heartbeat IPC: 0.27708 cumulative IPC: 0.34593 (Simulation time: 0 hr 10 min 9 sec) 
Heartbeat CPU  1 instructions:   90000003 cycles:  139122758 heartbeat IPC: 0.35179 cumulative IPC: 0.33841 (Simulation time: 0 hr 10 min 9 sec) 
*** Reached end of trace for Core: 2 Repeating trace: /pref/Pythia/CASSANDRA/traces/cassandra_phase0_core2.trace.xz
Heartbeat CPU  2 instructions:  100000000 cycles:  140327116 heartbeat IPC: 0.38682 cumulative IPC: 0.40002 (Simulation time: 0 hr 10 min 13 sec) 
Heartbeat CPU  1 instructions:   91000002 cycles:  141419822 heartbeat IPC: 0.43534 cumulative IPC: 0.34026 (Simulation time: 0 hr 10 min 16 sec) 
Heartbeat CPU  3 instructions:   99000002 cycles:  141512288 heartbeat IPC: 0.40541 cumulative IPC: 0.34714 (Simulation time: 0 hr 10 min 16 sec) 
Heartbeat CPU  0 instructions:  101000000 cycles:  141582963 heartbeat IPC: 0.26009 cumulative IPC: 0.38487 (Simulation time: 0 hr 10 min 16 sec) 
Heartbeat CPU  2 instructions:  101000003 cycles:  143331099 heartbeat IPC: 0.33289 cumulative IPC: 0.39837 (Simulation time: 0 hr 10 min 21 sec) 
*** Reached end of trace for Core: 3 Repeating trace: /pref/Pythia/CASSANDRA/traces/cassandra_phase0_core3.trace.xz
Heartbeat CPU  3 instructions:  100000000 cycles:  144000207 heartbeat IPC: 0.40194 cumulative IPC: 0.34825 (Simulation time: 0 hr 10 min 23 sec) 
Heartbeat CPU  0 instructions:  102000002 cycles:  144000421 heartbeat IPC: 0.41366 cumulative IPC: 0.38544 (Simulation time: 0 hr 10 min 23 sec) 
Heartbeat CPU  1 instructions:   92000000 cycles:  145536441 heartbeat IPC: 0.24292 cumulative IPC: 0.33704 (Simulation time: 0 hr 10 min 28 sec) 
Heartbeat CPU  2 instructions:  102000003 cycles:  145575124 heartbeat IPC: 0.44563 cumulative IPC: 0.39922 (Simulation time: 0 hr 10 min 28 sec) 
Heartbeat CPU  3 instructions:  101000003 cycles:  146190922 heartbeat IPC: 0.45647 cumulative IPC: 0.35014 (Simulation time: 0 hr 10 min 29 sec) 
Heartbeat CPU  2 instructions:  103000000 cycles:  148103144 heartbeat IPC: 0.39557 cumulative IPC: 0.39915 (Simulation time: 0 hr 10 min 34 sec) 
Heartbeat CPU  0 instructions:  103000003 cycles:  148118278 heartbeat IPC: 0.24284 cumulative IPC: 0.38082 (Simulation time: 0 hr 10 min 34 sec) 
Heartbeat CPU  3 instructions:  102000000 cycles:  148584418 heartbeat IPC: 0.41780 cumulative IPC: 0.35141 (Simulation time: 0 hr 10 min 36 sec) 
Heartbeat CPU  1 instructions:   93000003 cycles:  148761943 heartbeat IPC: 0.31003 cumulative IPC: 0.33636 (Simulation time: 0 hr 10 min 36 sec) 
Heartbeat CPU  3 instructions:  103000000 cycles:  150667633 heartbeat IPC: 0.48003 cumulative IPC: 0.35348 (Simulation time: 0 hr 10 min 42 sec) 
Heartbeat CPU  0 instructions:  104000000 cycles:  150702073 heartbeat IPC: 0.38703 cumulative IPC: 0.38095 (Simulation time: 0 hr 10 min 42 sec) 
Heartbeat CPU  1 instructions:   94000003 cycles:  151498162 heartbeat IPC: 0.36547 cumulative IPC: 0.33697 (Simulation time: 0 hr 10 min 44 sec) 
Heartbeat CPU  2 instructions:  104000000 cycles:  152240169 heartbeat IPC: 0.24172 cumulative IPC: 0.39419 (Simulation time: 0 hr 10 min 46 sec) 
Heartbeat CPU  3 instructions:  104000000 cycles:  153070389 heartbeat IPC: 0.41619 cumulative IPC: 0.35462 (Simulation time: 0 hr 10 min 49 sec) 
Heartbeat CPU  0 instructions:  105000001 cycles:  153454976 heartbeat IPC: 0.36325 cumulative IPC: 0.38058 (Simulation time: 0 hr 10 min 50 sec) 
Heartbeat CPU  1 instructions:   95000000 cycles:  153653928 heartbeat IPC: 0.46387 cumulative IPC: 0.33903 (Simulation time: 0 hr 10 min 50 sec) 
Heartbeat CPU  2 instructions:  105000002 cycles:  154717662 heartbeat IPC: 0.40363 cumulative IPC: 0.39437 (Simulation time: 0 hr 10 min 53 sec) 
Heartbeat CPU  3 instructions:  105000003 cycles:  155520059 heartbeat IPC: 0.40822 cumulative IPC: 0.35559 (Simulation time: 0 hr 10 min 56 sec) 
Heartbeat CPU  0 instructions:  106000003 cycles:  155899588 heartbeat IPC: 0.40906 cumulative IPC: 0.38109 (Simulation time: 0 hr 10 min 57 sec) 
Heartbeat CPU  1 instructions:   96000000 cycles:  156094330 heartbeat IPC: 0.40977 cumulative IPC: 0.34031 (Simulation time: 0 hr 10 min 58 sec) 
Heartbeat CPU  2 instructions:  106000002 cycles:  157166990 heartbeat IPC: 0.40828 cumulative IPC: 0.39462 (Simulation time: 0 hr 11 min 1 sec) 
Heartbeat CPU  3 instructions:  106000002 cycles:  158077756 heartbeat IPC: 0.39098 cumulative IPC: 0.35625 (Simulation time: 0 hr 11 min 3 sec) 
Heartbeat CPU  0 instructions:  107000001 cycles:  158371038 heartbeat IPC: 0.40462 cumulative IPC: 0.38152 (Simulation time: 0 hr 11 min 4 sec) 
Heartbeat CPU  1 instructions:   97000003 cycles:  158620959 heartbeat IPC: 0.39579 cumulative IPC: 0.34133 (Simulation time: 0 hr 11 min 5 sec) 
Heartbeat CPU  2 instructions:  107000000 cycles:  159603054 heartbeat IPC: 0.41050 cumulative IPC: 0.39489 (Simulation time: 0 hr 11 min 8 sec) 
Heartbeat CPU  3 instructions:  107000000 cycles:  160453386 heartbeat IPC: 0.42094 cumulative IPC: 0.35735 (Simulation time: 0 hr 11 min 11 sec) 
Heartbeat CPU  0 instructions:  108000000 cycles:  160535995 heartbeat IPC: 0.46190 cumulative IPC: 0.38276 (Simulation time: 0 hr 11 min 11 sec) 
Heartbeat CPU  1 instructions:   98000001 cycles:  160943243 heartbeat IPC: 0.43061 cumulative IPC: 0.34281 (Simulation time: 0 hr 11 min 12 sec) 
Heartbeat CPU  2 instructions:  108000000 cycles:  162640388 heartbeat IPC: 0.32924 cumulative IPC: 0.39349 (Simulation time: 0 hr 11 min 17 sec) 
Heartbeat CPU  3 instructions:  108000000 cycles:  162676978 heartbeat IPC: 0.44972 cumulative IPC: 0.35880 (Simulation time: 0 hr 11 min 17 sec) 
Heartbeat CPU  0 instructions:  109000002 cycles:  162991699 heartbeat IPC: 0.40722 cumulative IPC: 0.38319 (Simulation time: 0 hr 11 min 18 sec) 
Heartbeat CPU  1 instructions:   99000003 cycles:  163368246 heartbeat IPC: 0.41237 cumulative IPC: 0.34399 (Simulation time: 0 hr 11 min 20 sec) 
Heartbeat CPU  3 instructions:  109000002 cycles:  164771852 heartbeat IPC: 0.47736 cumulative IPC: 0.36053 (Simulation time: 0 hr 11 min 24 sec) 
Heartbeat CPU  2 instructions:  109000000 cycles:  165168969 heartbeat IPC: 0.39548 cumulative IPC: 0.39352 (Simulation time: 0 hr 11 min 25 sec) 
Heartbeat CPU  0 instructions:  110000000 cycles:  165886175 heartbeat IPC: 0.34548 cumulative IPC: 0.38243 (Simulation time: 0 hr 11 min 27 sec) 
*** Reached end of trace for Core: 1 Repeating trace: /pref/Pythia/CASSANDRA/traces/cassandra_phase0_core1.trace.xz
Heartbeat CPU  1 instructions:  100000000 cycles:  166137944 heartbeat IPC: 0.36105 cumulative IPC: 0.34432 (Simulation time: 0 hr 11 min 28 sec) 
Heartbeat CPU  3 instructions:  110000003 cycles:  167339141 heartbeat IPC: 0.38952 cumulative IPC: 0.36104 (Simulation time: 0 hr 11 min 31 sec) 
Heartbeat CPU  2 instructions:  110000000 cycles:  167961341 heartbeat IPC: 0.35812 cumulative IPC: 0.39285 (Simulation time: 0 hr 11 min 33 sec) 
Heartbeat CPU  0 instructions:  111000002 cycles:  168964498 heartbeat IPC: 0.32485 cumulative IPC: 0.38124 (Simulation time: 0 hr 11 min 35 sec) 
Heartbeat CPU  1 instructions:  101000001 cycles:  169487322 heartbeat IPC: 0.29856 cumulative IPC: 0.34329 (Simulation time: 0 hr 11 min 37 sec) 
Heartbeat CPU  3 instructions:  111000000 cycles:  170039344 heartbeat IPC: 0.37034 cumulative IPC: 0.36121 (Simulation time: 0 hr 11 min 38 sec) 
Heartbeat CPU  2 instructions:  111000000 cycles:  171116130 heartbeat IPC: 0.31698 cumulative IPC: 0.39126 (Simulation time: 0 hr 11 min 41 sec) 
Heartbeat CPU  0 instructions:  112000000 cycles:  171246913 heartbeat IPC: 0.43813 cumulative IPC: 0.38210 (Simulation time: 0 hr 11 min 41 sec) 
Heartbeat CPU  3 instructions:  112000000 cycles:  172481454 heartbeat IPC: 0.40948 cumulative IPC: 0.36198 (Simulation time: 0 hr 11 min 44 sec) 
Heartbeat CPU  2 instructions:  112000000 cycles:  173784028 heartbeat IPC: 0.37483 cumulative IPC: 0.39097 (Simulation time: 0 hr 11 min 48 sec) 
Heartbeat CPU  0 instructions:  113000002 cycles:  173802859 heartbeat IPC: 0.39125 cumulative IPC: 0.38225 (Simulation time: 0 hr 11 min 48 sec) 
Heartbeat CPU  1 instructions:  102000001 cycles:  174038759 heartbeat IPC: 0.21971 cumulative IPC: 0.33961 (Simulation time: 0 hr 11 min 49 sec) 
Heartbeat CPU  3 instructions:  113000000 cycles:  175154518 heartbeat IPC: 0.37410 cumulative IPC: 0.36219 (Simulation time: 0 hr 11 min 52 sec) 
Heartbeat CPU  2 instructions:  113000003 cycles:  176209146 heartbeat IPC: 0.41235 cumulative IPC: 0.39130 (Simulation time: 0 hr 11 min 55 sec) 
Heartbeat CPU  1 instructions:  103000003 cycles:  176419313 heartbeat IPC: 0.42007 cumulative IPC: 0.34084 (Simulation time: 0 hr 11 min 56 sec) 
Heartbeat CPU  0 instructions:  114000002 cycles:  176543520 heartbeat IPC: 0.36488 cumulative IPC: 0.38195 (Simulation time: 0 hr 11 min 56 sec) 
Heartbeat CPU  3 instructions:  114000001 cycles:  177802401 heartbeat IPC: 0.37766 cumulative IPC: 0.36246 (Simulation time: 0 hr 12 min 0 sec) 
Heartbeat CPU  2 instructions:  114000000 cycles:  178755004 heartbeat IPC: 0.39279 cumulative IPC: 0.39133 (Simulation time: 0 hr 12 min 3 sec) 
Heartbeat CPU  1 instructions:  104000000 cycles:  178816995 heartbeat IPC: 0.41707 cumulative IPC: 0.34200 (Simulation time: 0 hr 12 min 3 sec) 
Heartbeat CPU  0 instructions:  115000001 cycles:  179117479 heartbeat IPC: 0.38851 cumulative IPC: 0.38205 (Simulation time: 0 hr 12 min 4 sec) 
Heartbeat CPU  3 instructions:  115000002 cycles:  180172683 heartbeat IPC: 0.42189 cumulative IPC: 0.36334 (Simulation time: 0 hr 12 min 7 sec) 
Heartbeat CPU  2 instructions:  115000002 cycles:  181170015 heartbeat IPC: 0.41408 cumulative IPC: 0.39167 (Simulation time: 0 hr 12 min 10 sec) 
Heartbeat CPU  1 instructions:  105000000 cycles:  181290241 heartbeat IPC: 0.40433 cumulative IPC: 0.34296 (Simulation time: 0 hr 12 min 11 sec) 
Heartbeat CPU  0 instructions:  116000000 cycles:  181663617 heartbeat IPC: 0.39275 cumulative IPC: 0.38222 (Simulation time: 0 hr 12 min 12 sec) 
Heartbeat CPU  3 instructions:  116000000 cycles:  182529107 heartbeat IPC: 0.42437 cumulative IPC: 0.36423 (Simulation time: 0 hr 12 min 14 sec) 
Heartbeat CPU  1 instructions:  106000000 cycles:  183807533 heartbeat IPC: 0.39725 cumulative IPC: 0.34380 (Simulation time: 0 hr 12 min 18 sec) 
Heartbeat CPU  2 instructions:  116000000 cycles:  183901339 heartbeat IPC: 0.36612 cumulative IPC: 0.39124 (Simulation time: 0 hr 12 min 18 sec) 
Heartbeat CPU  0 instructions:  117000001 cycles:  184272907 heartbeat IPC: 0.38325 cumulative IPC: 0.38224 (Simulation time: 0 hr 12 min 19 sec) 
Heartbeat CPU  3 instructions:  117000000 cycles:  185107683 heartbeat IPC: 0.38781 cumulative IPC: 0.36460 (Simulation time: 0 hr 12 min 22 sec) 
Heartbeat CPU  0 instructions:  118000003 cycles:  186866088 heartbeat IPC: 0.38563 cumulative IPC: 0.38229 (Simulation time: 0 hr 12 min 27 sec) 
Heartbeat CPU  2 instructions:  117000003 cycles:  187014576 heartbeat IPC: 0.32121 cumulative IPC: 0.38993 (Simulation time: 0 hr 12 min 27 sec) 
Heartbeat CPU  1 instructions:  107000002 cycles:  187173061 heartbeat IPC: 0.29713 cumulative IPC: 0.34286 (Simulation time: 0 hr 12 min 28 sec) 
Heartbeat CPU  3 instructions:  118000000 cycles:  187404484 heartbeat IPC: 0.43539 cumulative IPC: 0.36558 (Simulation time: 0 hr 12 min 28 sec) 
Heartbeat CPU  0 instructions:  119000000 cycles:  189079119 heartbeat IPC: 0.45187 cumulative IPC: 0.38321 (Simulation time: 0 hr 12 min 33 sec) 
Heartbeat CPU  2 instructions:  118000003 cycles:  189150605 heartbeat IPC: 0.46816 cumulative IPC: 0.39092 (Simulation time: 0 hr 12 min 34 sec) 
Heartbeat CPU  1 instructions:  108000000 cycles:  190208386 heartbeat IPC: 0.32945 cumulative IPC: 0.34262 (Simulation time: 0 hr 12 min 37 sec) 
Heartbeat CPU  3 instructions:  119000003 cycles:  190257983 heartbeat IPC: 0.35045 cumulative IPC: 0.36532 (Simulation time: 0 hr 12 min 37 sec) 
Heartbeat CPU  2 instructions:  119000003 cycles:  191556995 heartbeat IPC: 0.41556 cumulative IPC: 0.39127 (Simulation time: 0 hr 12 min 41 sec) 
Heartbeat CPU  0 instructions:  120000000 cycles:  191577453 heartbeat IPC: 0.40027 cumulative IPC: 0.38346 (Simulation time: 0 hr 12 min 41 sec) 
Heartbeat CPU  3 instructions:  120000000 cycles:  192539002 heartbeat IPC: 0.43840 cumulative IPC: 0.36629 (Simulation time: 0 hr 12 min 44 sec) 
Heartbeat CPU  1 instructions:  109000000 cycles:  192947482 heartbeat IPC: 0.36508 cumulative IPC: 0.34297 (Simulation time: 0 hr 12 min 45 sec) 
Heartbeat CPU  0 instructions:  121000003 cycles:  194033745 heartbeat IPC: 0.40712 cumulative IPC: 0.38379 (Simulation time: 0 hr 12 min 48 sec) 
Heartbeat CPU  2 instructions:  120000000 cycles:  194437361 heartbeat IPC: 0.34718 cumulative IPC: 0.39054 (Simulation time: 0 hr 12 min 49 sec) 
Heartbeat CPU  3 instructions:  121000003 cycles:  195084937 heartbeat IPC: 0.39278 cumulative IPC: 0.36668 (Simulation time: 0 hr 12 min 51 sec) 
Heartbeat CPU  1 instructions:  110000002 cycles:  195432970 heartbeat IPC: 0.40234 cumulative IPC: 0.34382 (Simulation time: 0 hr 12 min 52 sec) 
Heartbeat CPU  0 instructions:  122000000 cycles:  196511656 heartbeat IPC: 0.40356 cumulative IPC: 0.38407 (Simulation time: 0 hr 12 min 56 sec) 
Heartbeat CPU  2 instructions:  121000002 cycles:  196968821 heartbeat IPC: 0.39503 cumulative IPC: 0.39060 (Simulation time: 0 hr 12 min 57 sec) 
Heartbeat CPU  3 instructions:  122000003 cycles:  197699062 heartbeat IPC: 0.38254 cumulative IPC: 0.36691 (Simulation time: 0 hr 12 min 59 sec) 
Heartbeat CPU  1 instructions:  111000003 cycles:  198077633 heartbeat IPC: 0.37812 cumulative IPC: 0.34433 (Simulation time: 0 hr 13 min 0 sec) 
Heartbeat CPU  2 instructions:  122000001 cycles:  199224605 heartbeat IPC: 0.44330 cumulative IPC: 0.39127 (Simulation time: 0 hr 13 min 4 sec) 
Heartbeat CPU  0 instructions:  123000001 cycles:  199228313 heartbeat IPC: 0.36810 cumulative IPC: 0.38383 (Simulation time: 0 hr 13 min 4 sec) 
Heartbeat CPU  3 instructions:  123000001 cycles:  200090583 heartbeat IPC: 0.41814 cumulative IPC: 0.36760 (Simulation time: 0 hr 13 min 6 sec) 
Heartbeat CPU  1 instructions:  112000000 cycles:  200539156 heartbeat IPC: 0.40625 cumulative IPC: 0.34518 (Simulation time: 0 hr 13 min 8 sec) 
Heartbeat CPU  2 instructions:  123000001 cycles:  201615576 heartbeat IPC: 0.41824 cumulative IPC: 0.39163 (Simulation time: 0 hr 13 min 11 sec) 
Heartbeat CPU  0 instructions:  124000000 cycles:  202224571 heartbeat IPC: 0.33375 cumulative IPC: 0.38300 (Simulation time: 0 hr 13 min 13 sec) 
Heartbeat CPU  3 instructions:  124000000 cycles:  202685074 heartbeat IPC: 0.38543 cumulative IPC: 0.36785 (Simulation time: 0 hr 13 min 14 sec) 
Heartbeat CPU  1 instructions:  113000003 cycles:  202988646 heartbeat IPC: 0.40825 cumulative IPC: 0.34603 (Simulation time: 0 hr 13 min 15 sec) 
Heartbeat CPU  2 instructions:  124000000 cycles:  204142056 heartbeat IPC: 0.39581 cumulative IPC: 0.39168 (Simulation time: 0 hr 13 min 18 sec) 
Heartbeat CPU  0 instructions:  125000000 cycles:  204736167 heartbeat IPC: 0.39815 cumulative IPC: 0.38321 (Simulation time: 0 hr 13 min 20 sec) 
Heartbeat CPU  3 instructions:  125000000 cycles:  205505108 heartbeat IPC: 0.35461 cumulative IPC: 0.36765 (Simulation time: 0 hr 13 min 22 sec) 
Heartbeat CPU  1 instructions:  114000001 cycles:  205581800 heartbeat IPC: 0.38563 cumulative IPC: 0.34658 (Simulation time: 0 hr 13 min 23 sec) 
Heartbeat CPU  2 instructions:  125000001 cycles:  206646180 heartbeat IPC: 0.39934 cumulative IPC: 0.39179 (Simulation time: 0 hr 13 min 26 sec) 
Heartbeat CPU  0 instructions:  126000001 cycles:  207238334 heartbeat IPC: 0.39965 cumulative IPC: 0.38343 (Simulation time: 0 hr 13 min 28 sec) 
Heartbeat CPU  3 instructions:  126000000 cycles:  207873220 heartbeat IPC: 0.42228 cumulative IPC: 0.36834 (Simulation time: 0 hr 13 min 30 sec) 
Heartbeat CPU  1 instructions:  115000000 cycles:  208017506 heartbeat IPC: 0.41056 cumulative IPC: 0.34742 (Simulation time: 0 hr 13 min 30 sec) 
Heartbeat CPU  2 instructions:  126000001 cycles:  209136778 heartbeat IPC: 0.40151 cumulative IPC: 0.39192 (Simulation time: 0 hr 13 min 33 sec) 
Heartbeat CPU  0 instructions:  127000001 cycles:  209741619 heartbeat IPC: 0.39948 cumulative IPC: 0.38364 (Simulation time: 0 hr 13 min 35 sec) 
Heartbeat CPU  3 instructions:  127000000 cycles:  210252793 heartbeat IPC: 0.42024 cumulative IPC: 0.36899 (Simulation time: 0 hr 13 min 37 sec) 
Heartbeat CPU  1 instructions:  116000000 cycles:  210446091 heartbeat IPC: 0.41176 cumulative IPC: 0.34824 (Simulation time: 0 hr 13 min 37 sec) 
Heartbeat CPU  0 instructions:  128000000 cycles:  211967036 heartbeat IPC: 0.44935 cumulative IPC: 0.38441 (Simulation time: 0 hr 13 min 42 sec) 
Heartbeat CPU  2 instructions:  127000000 cycles:  212079960 heartbeat IPC: 0.33977 cumulative IPC: 0.39111 (Simulation time: 0 hr 13 min 42 sec) 
Heartbeat CPU  3 instructions:  128000000 cycles:  212651502 heartbeat IPC: 0.41689 cumulative IPC: 0.36959 (Simulation time: 0 hr 13 min 44 sec) 
Heartbeat CPU  1 instructions:  117000000 cycles:  212918811 heartbeat IPC: 0.40441 cumulative IPC: 0.34897 (Simulation time: 0 hr 13 min 45 sec) 
Heartbeat CPU  0 instructions:  129000003 cycles:  214447179 heartbeat IPC: 0.40320 cumulative IPC: 0.38465 (Simulation time: 0 hr 13 min 49 sec) 
Heartbeat CPU  3 instructions:  129000003 cycles:  215062870 heartbeat IPC: 0.41470 cumulative IPC: 0.37015 (Simulation time: 0 hr 13 min 50 sec) 
Heartbeat CPU  2 instructions:  128000000 cycles:  216226470 heartbeat IPC: 0.24117 cumulative IPC: 0.38793 (Simulation time: 0 hr 13 min 53 sec) 
Heartbeat CPU  1 instructions:  118000001 cycles:  216259844 heartbeat IPC: 0.29931 cumulative IPC: 0.34812 (Simulation time: 0 hr 13 min 54 sec) 
Heartbeat CPU  0 instructions:  130000001 cycles:  216967804 heartbeat IPC: 0.39673 cumulative IPC: 0.38480 (Simulation time: 0 hr 13 min 56 sec) 
Heartbeat CPU  3 instructions:  130000002 cycles:  218051869 heartbeat IPC: 0.33456 cumulative IPC: 0.36961 (Simulation time: 0 hr 13 min 59 sec) 
Heartbeat CPU  2 instructions:  129000001 cycles:  219008447 heartbeat IPC: 0.35946 cumulative IPC: 0.38753 (Simulation time: 0 hr 14 min 1 sec) 
Heartbeat CPU  1 instructions:  119000001 cycles:  219060895 heartbeat IPC: 0.35701 cumulative IPC: 0.34824 (Simulation time: 0 hr 14 min 2 sec) 
Heartbeat CPU  0 instructions:  131000000 cycles:  219769095 heartbeat IPC: 0.35698 cumulative IPC: 0.38441 (Simulation time: 0 hr 14 min 4 sec) 
Heartbeat CPU  3 instructions:  131000001 cycles:  220238108 heartbeat IPC: 0.45741 cumulative IPC: 0.37058 (Simulation time: 0 hr 14 min 5 sec) 
Heartbeat CPU  2 instructions:  130000001 cycles:  221396822 heartbeat IPC: 0.41869 cumulative IPC: 0.38790 (Simulation time: 0 hr 14 min 9 sec) 
Heartbeat CPU  1 instructions:  120000000 cycles:  221787160 heartbeat IPC: 0.36680 cumulative IPC: 0.34849 (Simulation time: 0 hr 14 min 10 sec) 
Heartbeat CPU  0 instructions:  132000000 cycles:  222384413 heartbeat IPC: 0.38236 cumulative IPC: 0.38439 (Simulation time: 0 hr 14 min 12 sec) 
Heartbeat CPU  3 instructions:  132000000 cycles:  222919167 heartbeat IPC: 0.37299 cumulative IPC: 0.37061 (Simulation time: 0 hr 14 min 13 sec) 
Heartbeat CPU  2 instructions:  131000001 cycles:  224140539 heartbeat IPC: 0.36447 cumulative IPC: 0.38758 (Simulation time: 0 hr 14 min 17 sec) 
Heartbeat CPU  1 instructions:  121000002 cycles:  224316433 heartbeat IPC: 0.39537 cumulative IPC: 0.34908 (Simulation time: 0 hr 14 min 17 sec) 
Heartbeat CPU  0 instructions:  133000003 cycles:  224602898 heartbeat IPC: 0.45076 cumulative IPC: 0.38511 (Simulation time: 0 hr 14 min 18 sec) 
Heartbeat CPU  3 instructions:  133000003 cycles:  225674406 heartbeat IPC: 0.36295 cumulative IPC: 0.37051 (Simulation time: 0 hr 14 min 21 sec) 
Heartbeat CPU  2 instructions:  132000000 cycles:  227607573 heartbeat IPC: 0.28843 cumulative IPC: 0.38592 (Simulation time: 0 hr 14 min 26 sec) 
Heartbeat CPU  0 instructions:  134000000 cycles:  227778804 heartbeat IPC: 0.31487 cumulative IPC: 0.38403 (Simulation time: 0 hr 14 min 26 sec) 
Heartbeat CPU  1 instructions:  122000001 cycles:  228516615 heartbeat IPC: 0.23808 cumulative IPC: 0.34683 (Simulation time: 0 hr 14 min 28 sec) 
[...]
Core_0_L2C_rq_to_cache 1896008
Core_0_L2C_rq_full 0

Core_0_L2C_wq_access 419104
Core_0_L2C_wq_forward 20
Core_0_L2C_wq_merged 0
Core_0_L2C_wq_to_cache 419104
Core_0_L2C_wq_full 0

Core_0_L2C_pq_access 2335948
Core_0_L2C_pq_forward 0
Core_0_L2C_pq_merged 0
Core_0_L2C_pq_to_cache 2335948
Core_0_L2C_pq_full 0

Core_0_L2C_acc_epochs 208521
Core_0_L2C_acc_level_0 5162
Core_0_L2C_acc_level_1 24262
Core_0_L2C_acc_level_2 46178
Core_0_L2C_acc_level_3 62681
Core_0_L2C_acc_level_4 28519
Core_0_L2C_acc_level_5 8969
Core_0_L2C_acc_level_6 4973
Core_0_L2C_acc_level_7 4592
Core_0_L2C_acc_level_8 5081
Core_0_L2C_acc_level_9 18104

Core_0_LLC_total_access 2467109
Core_0_LLC_total_hit 1029609
Core_0_LLC_total_miss 1437500
Core_0_LLC_loads 871192
Core_0_LLC_load_hit 388498
Core_0_LLC_load_miss 482694
Core_0_LLC_RFOs 126490
Core_0_LLC_RFO_hit 41300
Core_0_LLC_RFO_miss 85190
Core_0_LLC_prefetches 1115378
Core_0_LLC_prefetch_hit 401506
Core_0_LLC_prefetch_miss 713872
Core_0_LLC_writebacks 354049
Core_0_LLC_writeback_hit 198305
Core_0_LLC_writeback_miss 155744
Core_0_LLC_prefetch_requested 0
Core_0_LLC_prefetch_dropped 0
Core_0_LLC_prefetch_issued 0
Core_0_LLC_prefetch_filled 4256173
Core_0_LLC_prefetch_useful 60185
Core_0_LLC_prefetch_useless 4153796
Core_0_LLC_prefetch_late 12
Core_0_LLC_average_miss_latency 773.19444

Core_0_LLC_rq_access 4618083
Core_0_LLC_rq_forward 0
Core_0_LLC_rq_merged 0
Core_0_LLC_rq_to_cache 4618050
Core_0_LLC_rq_full 0

Core_0_LLC_wq_access 1546709
Core_0_LLC_wq_forward 35
Core_0_LLC_wq_merged 0
Core_0_LLC_wq_to_cache 1546709
Core_0_LLC_wq_full 0

Core_0_LLC_pq_access 6977312
Core_0_LLC_pq_forward 0
Core_0_LLC_pq_merged 0
Core_0_LLC_pq_to_cache 6977310
Core_0_LLC_pq_full 0

Core_0_LLC_acc_epochs 441757
Core_0_LLC_acc_level_0 416949
Core_0_LLC_acc_level_1 16465
Core_0_LLC_acc_level_2 4428
Core_0_LLC_acc_level_3 1474
Core_0_LLC_acc_level_4 551
Core_0_LLC_acc_level_5 1082
Core_0_LLC_acc_level_6 261
Core_0_LLC_acc_level_7 160
Core_0_LLC_acc_level_8 100
Core_0_LLC_acc_level_9 287

Core_0_major_page_fault 0
Core_0_minor_page_fault 42336

Core_1_instructions 150000001
Core_1_cycles 431435638
Core_1_IPC 0.34768

Core_1_branch_prediction_accuracy 96.39335
Core_1_branch_MPKI 4.59880
Core_1_average_ROB_occupancy_at_mispredict 73.69437

Core_1_L1D_total_access 15247554
Core_1_L1D_total_hit 13667519
Core_1_L1D_total_miss 1580035
Core_1_L1D_loads 10003989
Core_1_L1D_load_hit 8614050
Core_1_L1D_load_miss 1389939
Core_1_L1D_RFOs 5243565
Core_1_L1D_RFO_hit 5053469
Core_1_L1D_RFO_miss 190096
Core_1_L1D_prefetches 0
Core_1_L1D_prefetch_hit 0
Core_1_L1D_prefetch_miss 0
Core_1_L1D_writebacks 0
Core_1_L1D_writeback_hit 0
Core_1_L1D_writeback_miss 0
Core_1_L1D_prefetch_requested 0
Core_1_L1D_prefetch_dropped 0
Core_1_L1D_prefetch_issued 0
Core_1_L1D_prefetch_filled 0
Core_1_L1D_prefetch_useful 0
Core_1_L1D_prefetch_useless 0
Core_1_L1D_prefetch_late 0
Core_1_L1D_average_miss_latency 151.97330

Core_1_L1D_rq_access 17867990
Core_1_L1D_rq_forward 0
Core_1_L1D_rq_merged 7463019
Core_1_L1D_rq_to_cache 10404668
Core_1_L1D_rq_full 0

Core_1_L1D_wq_access 5892331
Core_1_L1D_wq_forward 303
Core_1_L1D_wq_merged 112852
Core_1_L1D_wq_to_cache 5779479
Core_1_L1D_wq_full 0

Core_1_L1D_pq_access 0
Core_1_L1D_pq_forward 0
Core_1_L1D_pq_merged 0
Core_1_L1D_pq_to_cache 0
Core_1_L1D_pq_full 0

Core_1_L1D_acc_epochs 209003
Core_1_L1D_acc_level_0 209003
Core_1_L1D_acc_level_1 0
Core_1_L1D_acc_level_2 0
Core_1_L1D_acc_level_3 0
Core_1_L1D_acc_level_4 0
Core_1_L1D_acc_level_5 0
Core_1_L1D_acc_level_6 0
Core_1_L1D_acc_level_7 0
Core_1_L1D_acc_level_8 0
Core_1_L1D_acc_level_9 0

Core_1_L1I_total_access 29734869
Core_1_L1I_total_hit 28847836
Core_1_L1I_total_miss 887033
Core_1_L1I_loads 29734869
Core_1_L1I_load_hit 28847836
Core_1_L1I_load_miss 887033
Core_1_L1I_RFOs 0
Core_1_L1I_RFO_hit 0
Core_1_L1I_RFO_miss 0
Core_1_L1I_prefetches 0
Core_1_L1I_prefetch_hit 0
Core_1_L1I_prefetch_miss 0
Core_1_L1I_writebacks 0
Core_1_L1I_writeback_hit 0
Core_1_L1I_writeback_miss 0
Core_1_L1I_prefetch_requested 0
Core_1_L1I_prefetch_dropped 0
Core_1_L1I_prefetch_issued 0
Core_1_L1I_prefetch_filled 0
Core_1_L1I_prefetch_useful 0
Core_1_L1I_prefetch_useless 0
Core_1_L1I_prefetch_late 0
Core_1_L1I_average_miss_latency 67.89958

Core_1_L1I_rq_access 149999788
Core_1_L1I_rq_forward 0
Core_1_L1I_rq_merged 119767896
Core_1_L1I_rq_to_cache 30231892
Core_1_L1I_rq_full 0

Core_1_L1I_wq_access 0
Core_1_L1I_wq_forward 0
Core_1_L1I_wq_merged 0
Core_1_L1I_wq_to_cache 0
Core_1_L1I_wq_full 0

Core_1_L1I_pq_access 0
Core_1_L1I_pq_forward 0
Core_1_L1I_pq_merged 0
Core_1_L1I_pq_to_cache 0
Core_1_L1I_pq_full 0

Core_1_L1I_acc_epochs 209003
Core_1_L1I_acc_level_0 209003
Core_1_L1I_acc_level_1 0
Core_1_L1I_acc_level_2 0
Core_1_L1I_acc_level_3 0
Core_1_L1I_acc_level_4 0
Core_1_L1I_acc_level_5 0
Core_1_L1I_acc_level_6 0
Core_1_L1I_acc_level_7 0
Core_1_L1I_acc_level_8 0
Core_1_L1I_acc_level_9 0

Core_1_L2C_total_access 4762565
Core_1_L2C_total_hit 2181744
Core_1_L2C_total_miss 2580821
Core_1_L2C_loads 2276953
Core_1_L2C_load_hit 1019021
Core_1_L2C_load_miss 1257932
Core_1_L2C_RFOs 190062
Core_1_L2C_RFO_hit 48716
Core_1_L2C_RFO_miss 141346
Core_1_L2C_prefetches 1819816
Core_1_L2C_prefetch_hit 649711
Core_1_L2C_prefetch_miss 1170105
Core_1_L2C_writebacks 475734
Core_1_L2C_writeback_hit 464296
Core_1_L2C_writeback_miss 11438
Core_1_L2C_prefetch_requested 2966388
Core_1_L2C_prefetch_dropped 0
Core_1_L2C_prefetch_issued 2966388
Core_1_L2C_prefetch_filled 1633291
Core_1_L2C_prefetch_useful 690250
Core_1_L2C_prefetch_useless 941693
Core_1_L2C_prefetch_late 180588
Core_1_L2C_average_miss_latency 150.04942

Core_1_L2C_rq_access 2467068
Core_1_L2C_rq_forward 0
Core_1_L2C_rq_merged 0
Core_1_L2C_rq_to_cache 2467015
Core_1_L2C_rq_full 0

Core_1_L2C_wq_access 475734
Core_1_L2C_wq_forward 53
Core_1_L2C_wq_merged 0
Core_1_L2C_wq_to_cache 475734
Core_1_L2C_wq_full 0

Core_1_L2C_pq_access 2966388
Core_1_L2C_pq_forward 0
Core_1_L2C_pq_merged 0
Core_1_L2C_pq_to_cache 2966388
Core_1_L2C_pq_full 0

Core_1_L2C_acc_epochs 209003
Core_1_L2C_acc_level_0 6104
Core_1_L2C_acc_level_1 23182
Core_1_L2C_acc_level_2 43328
Core_1_L2C_acc_level_3 60005
Core_1_L2C_acc_level_4 31037
Core_1_L2C_acc_level_5 12426
Core_1_L2C_acc_level_6 6838
Core_1_L2C_acc_level_7 4996
Core_1_L2C_acc_level_8 4888
Core_1_L2C_acc_level_9 16199

Core_1_LLC_total_access 2972997
Core_1_LLC_total_hit 1526699
Core_1_LLC_total_miss 1446298
Core_1_LLC_loads 1107675
Core_1_LLC_load_hit 608330
Core_1_LLC_load_miss 499345
Core_1_LLC_RFOs 141072
Core_1_LLC_RFO_hit 61854
Core_1_LLC_RFO_miss 79218
Core_1_LLC_prefetches 1320617
Core_1_LLC_prefetch_hit 593043
Core_1_LLC_prefetch_miss 727574
Core_1_LLC_writebacks 403633
Core_1_LLC_writeback_hit 263472
Core_1_LLC_writeback_miss 140161
Core_1_LLC_prefetch_requested 0
Core_1_LLC_prefetch_dropped 0
Core_1_LLC_prefetch_issued 0
Core_1_LLC_prefetch_filled 4256173
Core_1_LLC_prefetch_useful 60185
Core_1_LLC_prefetch_useless 4153796
Core_1_LLC_prefetch_late 12
Core_1_LLC_average_miss_latency 768.49101

Core_1_LLC_rq_access 4618083
Core_1_LLC_rq_forward 0
Core_1_LLC_rq_merged 0
Core_1_LLC_rq_to_cache 4618050
Core_1_LLC_rq_full 0

Core_1_LLC_wq_access 1546709
Core_1_LLC_wq_forward 35
Core_1_LLC_wq_merged 0
Core_1_LLC_wq_to_cache 1546709
Core_1_LLC_wq_full 0

Core_1_LLC_pq_access 6977312
Core_1_LLC_pq_forward 0
Core_1_LLC_pq_merged 0
Core_1_LLC_pq_to_cache 6977310
Core_1_LLC_pq_full 0

Core_1_LLC_acc_epochs 441757
Core_1_LLC_acc_level_0 416949
Core_1_LLC_acc_level_1 16465
Core_1_LLC_acc_level_2 4428
Core_1_LLC_acc_level_3 1474
Core_1_LLC_acc_level_4 551
Core_1_LLC_acc_level_5 1082
Core_1_LLC_acc_level_6 261
Core_1_LLC_acc_level_7 160
Core_1_LLC_acc_level_8 100
Core_1_LLC_acc_level_9 287

Core_1_major_page_fault 0
Core_1_minor_page_fault 44990

Core_2_instructions 150000001
Core_2_cycles 387224388
Core_2_IPC 0.38737

Core_2_branch_prediction_accuracy 97.70477
Core_2_branch_MPKI 2.81195
Core_2_average_ROB_occupancy_at_mispredict 95.26246

Core_2_L1D_total_access 14535992
Core_2_L1D_total_hit 13196731
Core_2_L1D_total_miss 1339261
Core_2_L1D_loads 9727997
Core_2_L1D_load_hit 8516504
Core_2_L1D_load_miss 1211493
Core_2_L1D_RFOs 4807995
Core_2_L1D_RFO_hit 4680227
Core_2_L1D_RFO_miss 127768
Core_2_L1D_prefetches 0
Core_2_L1D_prefetch_hit 0
Core_2_L1D_prefetch_miss 0
Core_2_L1D_writebacks 0
Core_2_L1D_writeback_hit 0
Core_2_L1D_writeback_miss 0
Core_2_L1D_prefetch_requested 0
Core_2_L1D_prefetch_dropped 0
Core_2_L1D_prefetch_issued 0
Core_2_L1D_prefetch_filled 0
Core_2_L1D_prefetch_useful 0
Core_2_L1D_prefetch_useless 0
Core_2_L1D_prefetch_late 0
Core_2_L1D_average_miss_latency 183.53632

Core_2_L1D_rq_access 19215090
Core_2_L1D_rq_forward 0
Core_2_L1D_rq_merged 8007793
Core_2_L1D_rq_to_cache 11207138
Core_2_L1D_rq_full 0

Core_2_L1D_wq_access 5923759
Core_2_L1D_wq_forward 159
Core_2_L1D_wq_merged 122245
Core_2_L1D_wq_to_cache 5801514
Core_2_L1D_wq_full 621

Core_2_L1D_pq_access 0
Core_2_L1D_pq_forward 0
Core_2_L1D_pq_merged 0
Core_2_L1D_pq_to_cache 0
Core_2_L1D_pq_full 0

Core_2_L1D_acc_epochs 209997
Core_2_L1D_acc_level_0 209997
Core_2_L1D_acc_level_1 0
Core_2_L1D_acc_level_2 0
Core_2_L1D_acc_level_3 0
Core_2_L1D_acc_level_4 0
Core_2_L1D_acc_level_5 0
Core_2_L1D_acc_level_6 0
Core_2_L1D_acc_level_7 0
Core_2_L1D_acc_level_8 0
Core_2_L1D_acc_level_9 0

Core_2_L1I_total_access 29750325
Core_2_L1I_total_hit 29366853
Core_2_L1I_total_miss 383472
Core_2_L1I_loads 29750325
Core_2_L1I_load_hit 29366853
Core_2_L1I_load_miss 383472
Core_2_L1I_RFOs 0
Core_2_L1I_RFO_hit 0
Core_2_L1I_RFO_miss 0
Core_2_L1I_prefetches 0
Core_2_L1I_prefetch_hit 0
Core_2_L1I_prefetch_miss 0
Core_2_L1I_writebacks 0
Core_2_L1I_writeback_hit 0
Core_2_L1I_writeback_miss 0
Core_2_L1I_prefetch_requested 0
Core_2_L1I_prefetch_dropped 0
Core_2_L1I_prefetch_issued 0
Core_2_L1I_prefetch_filled 0
Core_2_L1I_prefetch_useful 0
Core_2_L1I_prefetch_useless 0
Core_2_L1I_prefetch_late 0
Core_2_L1I_average_miss_latency 90.40303

Core_2_L1I_rq_access 166266583
Core_2_L1I_rq_forward 0
Core_2_L1I_rq_merged 133012201
Core_2_L1I_rq_to_cache 33254382
Core_2_L1I_rq_full 0

Core_2_L1I_wq_access 0
Core_2_L1I_wq_forward 0
Core_2_L1I_wq_merged 0
Core_2_L1I_wq_to_cache 0
Core_2_L1I_wq_full 0

Core_2_L1I_pq_access 0
Core_2_L1I_pq_forward 0
Core_2_L1I_pq_merged 0
Core_2_L1I_pq_to_cache 0
Core_2_L1I_pq_full 0

Core_2_L1I_acc_epochs 209997
Core_2_L1I_acc_level_0 209997
Core_2_L1I_acc_level_1 0
Core_2_L1I_acc_level_2 0
Core_2_L1I_acc_level_3 0
Core_2_L1I_acc_level_4 0
Core_2_L1I_acc_level_5 0
Core_2_L1I_acc_level_6 0
Core_2_L1I_acc_level_7 0
Core_2_L1I_acc_level_8 0
Core_2_L1I_acc_level_9 0

Core_2_L2C_total_access 3317254
Core_2_L2C_total_hit 1205312
Core_2_L2C_total_miss 2111942
Core_2_L2C_loads 1594957
Core_2_L2C_load_hit 570240
Core_2_L2C_load_miss 1024717
Core_2_L2C_RFOs 127750
Core_2_L2C_RFO_hit 20486
Core_2_L2C_RFO_miss 107264
Core_2_L2C_prefetches 1233932
Core_2_L2C_prefetch_hit 258524
Core_2_L2C_prefetch_miss 975408
Core_2_L2C_writebacks 360615
Core_2_L2C_writeback_hit 356062
Core_2_L2C_writeback_miss 4553
Core_2_L2C_prefetch_requested 2440655
Core_2_L2C_prefetch_dropped 0
Core_2_L2C_prefetch_issued 2440655
Core_2_L2C_prefetch_filled 1553543
Core_2_L2C_prefetch_useful 645998
Core_2_L2C_prefetch_useless 906068
Core_2_L2C_prefetch_late 188623
Core_2_L2C_average_miss_latency 186.91914

Core_2_L2C_rq_access 1947794
Core_2_L2C_rq_forward 0
Core_2_L2C_rq_merged 0
Core_2_L2C_rq_to_cache 1947766
Core_2_L2C_rq_full 0

Core_2_L2C_wq_access 408402
Core_2_L2C_wq_forward 31
Core_2_L2C_wq_merged 0
Core_2_L2C_wq_to_cache 408402
Core_2_L2C_wq_full 0

Core_2_L2C_pq_access 2440655
Core_2_L2C_pq_forward 0
Core_2_L2C_pq_merged 0
Core_2_L2C_pq_to_cache 2440652
Core_2_L2C_pq_full 0

Core_2_L2C_acc_epochs 209997
Core_2_L2C_acc_level_0 4920
Core_2_L2C_acc_level_1 24029
Core_2_L2C_acc_level_2 46914
Core_2_L2C_acc_level_3 64047
Core_2_L2C_acc_level_4 29089
Core_2_L2C_acc_level_5 9452
Core_2_L2C_acc_level_6 5225
Core_2_L2C_acc_level_7 4407
Core_2_L2C_acc_level_8 4750
Core_2_L2C_acc_level_9 17164

Core_2_LLC_total_access 2441784
Core_2_LLC_total_hit 1033038
Core_2_LLC_total_miss 1408746
Core_2_LLC_loads 885160
Core_2_LLC_load_hit 397872
Core_2_LLC_load_miss 487288
Core_2_LLC_RFOs 107126
Core_2_LLC_RFO_hit 41049
Core_2_LLC_RFO_miss 66077
Core_2_LLC_prefetches 1115102
Core_2_LLC_prefetch_hit 406513
Core_2_LLC_prefetch_miss 708589
Core_2_LLC_writebacks 334396
Core_2_LLC_writeback_hit 187604
Core_2_LLC_writeback_miss 146792
Core_2_LLC_prefetch_requested 0
Core_2_LLC_prefetch_dropped 0
Core_2_LLC_prefetch_issued 0
Core_2_LLC_prefetch_filled 4256173
Core_2_LLC_prefetch_useful 60185
Core_2_LLC_prefetch_useless 4153796
Core_2_LLC_prefetch_late 12
Core_2_LLC_average_miss_latency 788.97616

Core_2_LLC_rq_access 4618083
Core_2_LLC_rq_forward 0
Core_2_LLC_rq_merged 0
Core_2_LLC_rq_to_cache 4618050
Core_2_LLC_rq_full 0

Core_2_LLC_wq_access 1546709
Core_2_LLC_wq_forward 35
Core_2_LLC_wq_merged 0
Core_2_LLC_wq_to_cache 1546709
Core_2_LLC_wq_full 0

Core_2_LLC_pq_access 6977312
Core_2_LLC_pq_forward 0
Core_2_LLC_pq_merged 0
Core_2_LLC_pq_to_cache 6977310
Core_2_LLC_pq_full 0

Core_2_LLC_acc_epochs 441757
Core_2_LLC_acc_level_0 416949
Core_2_LLC_acc_level_1 16465
Core_2_LLC_acc_level_2 4428
Core_2_LLC_acc_level_3 1474
Core_2_LLC_acc_level_4 551
Core_2_LLC_acc_level_5 1082
Core_2_LLC_acc_level_6 261
Core_2_LLC_acc_level_7 160
Core_2_LLC_acc_level_8 100
Core_2_LLC_acc_level_9 287

Core_2_major_page_fault 0
Core_2_minor_page_fault 43118

Core_3_instructions 150000000
Core_3_cycles 405908492
Core_3_IPC 0.36954

Core_3_branch_prediction_accuracy 97.33065
Core_3_branch_MPKI 3.18792
Core_3_average_ROB_occupancy_at_mispredict 88.37255

Core_3_L1D_total_access 14692748
Core_3_L1D_total_hit 13236576
Core_3_L1D_total_miss 1456172
Core_3_L1D_loads 9727764
Core_3_L1D_load_hit 8425854
Core_3_L1D_load_miss 1301910
Core_3_L1D_RFOs 4964984
Core_3_L1D_RFO_hit 4810722
Core_3_L1D_RFO_miss 154262
Core_3_L1D_prefetches 0
Core_3_L1D_prefetch_hit 0
Core_3_L1D_prefetch_miss 0
Core_3_L1D_writebacks 0
Core_3_L1D_writeback_hit 0
Core_3_L1D_writeback_miss 0
Core_3_L1D_prefetch_requested 0
Core_3_L1D_prefetch_dropped 0
Core_3_L1D_prefetch_issued 0
Core_3_L1D_prefetch_filled 0
Core_3_L1D_prefetch_useful 0
Core_3_L1D_prefetch_useless 0
Core_3_L1D_prefetch_late 0
Core_3_L1D_average_miss_latency 170.15550

Core_3_L1D_rq_access 18738036
Core_3_L1D_rq_forward 0
Core_3_L1D_rq_merged 7966317
Core_3_L1D_rq_to_cache 10771602
Core_3_L1D_rq_full 0

Core_3_L1D_wq_access 5859044
Core_3_L1D_wq_forward 117
Core_3_L1D_wq_merged 124011
Core_3_L1D_wq_to_cache 5735033
Core_3_L1D_wq_full 0

Core_3_L1D_pq_access 0
Core_3_L1D_pq_forward 0
Core_3_L1D_pq_merged 0
Core_3_L1D_pq_to_cache 0
Core_3_L1D_pq_full 0

Core_3_L1D_acc_epochs 210791
Core_3_L1D_acc_level_0 210791
Core_3_L1D_acc_level_1 0
Core_3_L1D_acc_level_2 0
Core_3_L1D_acc_level_3 0
Core_3_L1D_acc_level_4 0
Core_3_L1D_acc_level_5 0
Core_3_L1D_acc_level_6 0
Core_3_L1D_acc_level_7 0
Core_3_L1D_acc_level_8 0
Core_3_L1D_acc_level_9 0

Core_3_L1I_total_access 29544927
Core_3_L1I_total_hit 28948934
Core_3_L1I_total_miss 595993
Core_3_L1I_loads 29544927
Core_3_L1I_load_hit 28948934
Core_3_L1I_load_miss 595993
Core_3_L1I_RFOs 0
Core_3_L1I_RFO_hit 0
Core_3_L1I_RFO_miss 0
Core_3_L1I_prefetches 0
Core_3_L1I_prefetch_hit 0
Core_3_L1I_prefetch_miss 0
Core_3_L1I_writebacks 0
Core_3_L1I_writeback_hit 0
Core_3_L1I_writeback_miss 0
Core_3_L1I_prefetch_requested 0
Core_3_L1I_prefetch_dropped 0
Core_3_L1I_prefetch_issued 0
Core_3_L1I_prefetch_filled 0
Core_3_L1I_prefetch_useful 0
Core_3_L1I_prefetch_useless 0
Core_3_L1I_prefetch_late 0
Core_3_L1I_average_miss_latency 76.45240

Core_3_L1I_rq_access 160375946
Core_3_L1I_rq_forward 0
Core_3_L1I_rq_merged 128380593
Core_3_L1I_rq_to_cache 31995353
Core_3_L1I_rq_full 0

Core_3_L1I_wq_access 0
Core_3_L1I_wq_forward 0
Core_3_L1I_wq_merged 0
Core_3_L1I_wq_to_cache 0
Core_3_L1I_wq_full 0

Core_3_L1I_pq_access 0
Core_3_L1I_pq_forward 0
Core_3_L1I_pq_merged 0
Core_3_L1I_pq_to_cache 0
Core_3_L1I_pq_full 0

Core_3_L1I_acc_epochs 210791
Core_3_L1I_acc_level_0 210791
Core_3_L1I_acc_level_1 0
Core_3_L1I_acc_level_2 0
Core_3_L1I_acc_level_3 0
Core_3_L1I_acc_level_4 0
Core_3_L1I_acc_level_5 0
Core_3_L1I_acc_level_6 0
Core_3_L1I_acc_level_7 0
Core_3_L1I_acc_level_8 0
Core_3_L1I_acc_level_9 0

Core_3_L2C_total_access 3945597
Core_3_L2C_total_hit 1630736
Core_3_L2C_total_miss 2314861
Core_3_L2C_loads 1897899
Core_3_L2C_load_hit 771829
Core_3_L2C_load_miss 1126070
Core_3_L2C_RFOs 154233
Core_3_L2C_RFO_hit 30391
Core_3_L2C_RFO_miss 123842
Core_3_L2C_prefetches 1492661
Core_3_L2C_prefetch_hit 435880
Core_3_L2C_prefetch_miss 1056781
Core_3_L2C_writebacks 400804
Core_3_L2C_writeback_hit 392636
Core_3_L2C_writeback_miss 8168
Core_3_L2C_prefetch_requested 2546252
Core_3_L2C_prefetch_dropped 0
Core_3_L2C_prefetch_issued 2546252
Core_3_L2C_prefetch_filled 1551897
Core_3_L2C_prefetch_useful 631932
Core_3_L2C_prefetch_useless 918498
Core_3_L2C_prefetch_late 183329
Core_3_L2C_average_miss_latency 171.62346

Core_3_L2C_rq_access 2154177
Core_3_L2C_rq_forward 0
Core_3_L2C_rq_merged 0
Core_3_L2C_rq_to_cache 2154142
Core_3_L2C_rq_full 0

Core_3_L2C_wq_access 420826
Core_3_L2C_wq_forward 35
Core_3_L2C_wq_merged 0
Core_3_L2C_wq_to_cache 420826
Core_3_L2C_wq_full 0

Core_3_L2C_pq_access 2546252
Core_3_L2C_pq_forward 0
Core_3_L2C_pq_merged 0
Core_3_L2C_pq_to_cache 2546252
Core_3_L2C_pq_full 0

Core_3_L2C_acc_epochs 210791
Core_3_L2C_acc_level_0 5558
Core_3_L2C_acc_level_1 24327
Core_3_L2C_acc_level_2 46719
Core_3_L2C_acc_level_3 64470
Core_3_L2C_acc_level_4 29585
Core_3_L2C_acc_level_5 9581
Core_3_L2C_acc_level_6 5123
Core_3_L2C_acc_level_7 4332
Core_3_L2C_acc_level_8 4511
Core_3_L2C_acc_level_9 16585

Core_3_LLC_total_access 2671998
Core_3_LLC_total_hit 1218973
Core_3_LLC_total_miss 1453025
Core_3_LLC_loads 980329
Core_3_LLC_load_hit 474015
Core_3_LLC_load_miss 506314
Core_3_LLC_RFOs 123621
Core_3_LLC_RFO_hit 48844
Core_3_LLC_RFO_miss 74777
Core_3_LLC_prefetches 1202736
Core_3_LLC_prefetch_hit 478648
Core_3_LLC_prefetch_miss 724088
Core_3_LLC_writebacks 365312
Core_3_LLC_writeback_hit 217466
Core_3_LLC_writeback_miss 147846
Core_3_LLC_prefetch_requested 0
Core_3_LLC_prefetch_dropped 0
Core_3_LLC_prefetch_issued 0
Core_3_LLC_prefetch_filled 4256173
Core_3_LLC_prefetch_useful 60185
Core_3_LLC_prefetch_useless 4153796
Core_3_LLC_prefetch_late 12
Core_3_LLC_average_miss_latency 764.93316

Core_3_LLC_rq_access 4618083
Core_3_LLC_rq_forward 0
Core_3_LLC_rq_merged 0
Core_3_LLC_rq_to_cache 4618050
Core_3_LLC_rq_full 0

Core_3_LLC_wq_access 1546709
Core_3_LLC_wq_forward 35
Core_3_LLC_wq_merged 0
Core_3_LLC_wq_to_cache 1546709
Core_3_LLC_wq_full 0

Core_3_LLC_pq_access 6977312
Core_3_LLC_pq_forward 0
Core_3_LLC_pq_merged 0
Core_3_LLC_pq_to_cache 6977310
Core_3_LLC_pq_full 0

Core_3_LLC_acc_epochs 441757
Core_3_LLC_acc_level_0 416949
Core_3_LLC_acc_level_1 16465
Core_3_LLC_acc_level_2 4428
Core_3_LLC_acc_level_3 1474
Core_3_LLC_acc_level_4 551
Core_3_LLC_acc_level_5 1082
Core_3_LLC_acc_level_6 261
Core_3_LLC_acc_level_7 160
Core_3_LLC_acc_level_8 100
Core_3_LLC_acc_level_9 287

Core_3_major_page_fault 0
Core_3_minor_page_fault 46807

[CoopPythia Stats]
 - Useful prefetches: 2144042
 - Final alpha: 0.10000
[CoopPythia Stats]
 - Useful prefetches: 2144042
 - Final alpha: 0.10000
[CoopPythia Stats]
 - Useful prefetches: 2144042
 - Final alpha: 0.10000
[CoopPythia Stats]
 - Useful prefetches: 2144042
 - Final alpha: 0.10000
Channel_0_RQ_row_buffer_hit 170824
Channel_0_RQ_row_buffer_miss 2601662
Channel_0_WQ_row_buffer_hit 179107
Channel_0_WQ_row_buffer_miss 420173
Channel_0_WQ_full 0
Channel_0_dbus_congested 700539

Channel_1_RQ_row_buffer_hit 169827
Channel_1_RQ_row_buffer_miss 2559473
Channel_1_WQ_row_buffer_hit 175385
Channel_1_WQ_row_buffer_miss 422458
Channel_1_WQ_full 0
Channel_1_dbus_congested 686935

avg_congested_cycle 9

DRAM_bw_pochs 1767026
DRAM_bw_level_0 1536322
DRAM_bw_level_1 212509
DRAM_bw_level_2 17490
DRAM_bw_level_3 705
