*************************************************
   ChampSim Multicore Out-of-Order Simulator
   Last compiled: Mar 31 2025 20:14:32
*************************************************
parsing config file: /data3/config/spp_dev2.ini

trace_0 /data3/CASSANDRA/traces/cassandra_phase3_core0.trace.xz
trace_1 /data3/CASSANDRA/traces/cassandra_phase3_core1.trace.xz
trace_2 /data3/CASSANDRA/traces/cassandra_phase3_core2.trace.xz
trace_3 /data3/CASSANDRA/traces/cassandra_phase3_core3.trace.xz
adding L2C_PREFETCHER: SPP_dev2
Initialize SIGNATURE TABLE
ST_SET: 1
ST_WAY: 256
ST_TAG_BIT: 16
ST_TAG_MASK: ffff

Initialize PATTERN TABLE
PT_SET: 512
PT_WAY: 4
SIG_DELTA_BIT: 7
C_SIG_BIT: 4
C_DELTA_BIT: 4

Initialize PREFETCH FILTER
FILTER_SET: 1024
fill_threshold: 90
pf_threshold: 40

adding L2C_PREFETCHER: SPP_dev2
Initialize SIGNATURE TABLE
ST_SET: 1
ST_WAY: 256
ST_TAG_BIT: 16
ST_TAG_MASK: ffff

Initialize PATTERN TABLE
PT_SET: 512
PT_WAY: 4
SIG_DELTA_BIT: 7
C_SIG_BIT: 4
C_DELTA_BIT: 4

Initialize PREFETCH FILTER
FILTER_SET: 1024
fill_threshold: 90
pf_threshold: 40

adding L2C_PREFETCHER: SPP_dev2
Initialize SIGNATURE TABLE
ST_SET: 1
ST_WAY: 256
ST_TAG_BIT: 16
ST_TAG_MASK: ffff

Initialize PATTERN TABLE
PT_SET: 512
PT_WAY: 4
SIG_DELTA_BIT: 7
C_SIG_BIT: 4
C_DELTA_BIT: 4

Initialize PREFETCH FILTER
FILTER_SET: 1024
fill_threshold: 90
pf_threshold: 40

adding L2C_PREFETCHER: SPP_dev2
Initialize SIGNATURE TABLE
ST_SET: 1
ST_WAY: 256
ST_TAG_BIT: 16
ST_TAG_MASK: ffff

Initialize PATTERN TABLE
PT_SET: 512
PT_WAY: 4
SIG_DELTA_BIT: 7
C_SIG_BIT: 4
C_DELTA_BIT: 4

Initialize PREFETCH FILTER
FILTER_SET: 1024
fill_threshold: 90
pf_threshold: 40

Initialize SHIP state
warmup_instructions 50000000
simulation_instructions 150000000
champsim_seed 8754
measure_ipc 0
measure_ipc_epoch 1000
measure_dram_bw 1
measure_dram_bw_epoch 256
measure_cache_acc 1
measure_cache_acc_epoch 1024
l1d_perfect 0
l2c_perfect 0
llc_perfect 0
l1d_semi_perfect 0
l2c_semi_perfect 0
llc_semi_perfect 0
semi_perfect_cache_page_buffer_size 64

num_cpus 4
cpu_freq 4000
dram_io_freq 2400
page_size 4096
block_size 64
max_read_per_cycle 8
max_fill_per_cycle 1
dram_channels 2
log2_dram_channels 1
dram_ranks 1
dram_banks 8
dram_rows 65536
dram_columns 128
dram_row_size 8
dram_size 8192
dram_pages 2097152

fetch_width 6
decode_width 6
exec_width 4
lq_width 2
sq_width 2
retire_width 4
scheduler_size 128
branch_mispredict_penalty 20
rob_size 256
lq_size 72
sq_size 56
num_instr_destinations_sparc 4
num_instr_destinations 2
num_instr_sources 4

itlb_set 16
itlb_way 8
itlb_rq_size 16
itlb_wq_size 16
itlb_pq_size 0
itlb_mshr_size 8
itlb_latency 1

dtlb_set 16
dtlb_way 4
dtlb_rq_size 16
dtlb_wq_size 16
dtlb_pq_size 0
dtlb_mshr_size 8
dtlb_latency 1

stlb_set 128
stlb_way 12
stlb_rq_size 32
stlb_wq_size 32
stlb_pq_size 0
stlb_mshr_size 16
stlb_latency 8

l1i_size 32
l1i_set 64
l1i_way 8
l1i_rq_size 64
l1i_wq_size 64
l1i_pq_size 8
l1i_mshr_size 8
l1i_latency 1

l1d_size 32
l1d_set 64
l1d_way 8
l1d_rq_size 64
l1d_wq_size 64
l1d_pq_size 8
l1d_mshr_size 16
l1d_latency 4

l2c_size 256
l2c_set 512
l2c_way 8
l2c_rq_size 32
l2c_wq_size 32
l2c_pq_size 32
l2c_mshr_size 32
l2c_latency 10

llc_size 8192
llc_set 8192
llc_way 16
llc_rq_size 128
llc_wq_size 128
llc_pq_size 128
llc_mshr_size 256
llc_latency 20

dram_channel_width 8
dram_wq_size 64
dram_rq_size 64
tRP 15
tRCD 15
tCAS 12.5
dram_dbus_turn_around_time 30
dram_write_high_wm 56
dram_write_low_wm 48
min_dram_writes_per_switch 16
dram_mtps 2400
dram_dbus_return_time 13


Heartbeat CPU  0 instructions:    1000001 cycles:     326108 heartbeat IPC: 3.06647 cumulative IPC: 3.06647 (Simulation time: 0 hr 0 min 5 sec) 
Heartbeat CPU  2 instructions:    1000001 cycles:     404709 heartbeat IPC: 2.47091 cumulative IPC: 2.47091 (Simulation time: 0 hr 0 min 6 sec) 
Heartbeat CPU  3 instructions:    1000000 cycles:     467964 heartbeat IPC: 2.13692 cumulative IPC: 2.13692 (Simulation time: 0 hr 0 min 7 sec) 
Heartbeat CPU  1 instructions:    1000002 cycles:     481170 heartbeat IPC: 2.07827 cumulative IPC: 2.07827 (Simulation time: 0 hr 0 min 7 sec) 
Heartbeat CPU  0 instructions:    2000000 cycles:     655568 heartbeat IPC: 3.03527 cumulative IPC: 3.05079 (Simulation time: 0 hr 0 min 10 sec) 
Heartbeat CPU  2 instructions:    2000000 cycles:     732301 heartbeat IPC: 3.05257 cumulative IPC: 2.73112 (Simulation time: 0 hr 0 min 11 sec) 
Heartbeat CPU  3 instructions:    2000003 cycles:     798824 heartbeat IPC: 3.02244 cumulative IPC: 2.50368 (Simulation time: 0 hr 0 min 12 sec) 
Heartbeat CPU  0 instructions:    3000003 cycles:    1046301 heartbeat IPC: 2.55930 cumulative IPC: 2.86725 (Simulation time: 0 hr 0 min 15 sec) 
Heartbeat CPU  2 instructions:    3000000 cycles:    1059621 heartbeat IPC: 3.05511 cumulative IPC: 2.83120 (Simulation time: 0 hr 0 min 15 sec) 
Heartbeat CPU  3 instructions:    3000000 cycles:    1125971 heartbeat IPC: 3.05672 cumulative IPC: 2.66437 (Simulation time: 0 hr 0 min 17 sec) 
Heartbeat CPU  1 instructions:    2000003 cycles:    1186452 heartbeat IPC: 1.41787 cumulative IPC: 1.68570 (Simulation time: 0 hr 0 min 18 sec) 
Heartbeat CPU  0 instructions:    4000000 cycles:    1374858 heartbeat IPC: 3.04360 cumulative IPC: 2.90939 (Simulation time: 0 hr 0 min 21 sec) 
Heartbeat CPU  2 instructions:    4000000 cycles:    1385128 heartbeat IPC: 3.07213 cumulative IPC: 2.88782 (Simulation time: 0 hr 0 min 21 sec) 
Heartbeat CPU  3 instructions:    4000000 cycles:    1452793 heartbeat IPC: 3.05977 cumulative IPC: 2.75332 (Simulation time: 0 hr 0 min 22 sec) 
Heartbeat CPU  1 instructions:    3000003 cycles:    1700501 heartbeat IPC: 1.94534 cumulative IPC: 1.76419 (Simulation time: 0 hr 0 min 26 sec) 
Heartbeat CPU  2 instructions:    5000002 cycles:    1710864 heartbeat IPC: 3.06998 cumulative IPC: 2.92250 (Simulation time: 0 hr 0 min 26 sec) 
Heartbeat CPU  0 instructions:    5000003 cycles:    1712078 heartbeat IPC: 2.96543 cumulative IPC: 2.92043 (Simulation time: 0 hr 0 min 26 sec) 
Heartbeat CPU  3 instructions:    5000001 cycles:    1863090 heartbeat IPC: 2.43726 cumulative IPC: 2.68371 (Simulation time: 0 hr 0 min 28 sec) 
Heartbeat CPU  1 instructions:    4000000 cycles:    2024259 heartbeat IPC: 3.08872 cumulative IPC: 1.97603 (Simulation time: 0 hr 0 min 30 sec) 
Heartbeat CPU  2 instructions:    6000003 cycles:    2036265 heartbeat IPC: 3.07313 cumulative IPC: 2.94657 (Simulation time: 0 hr 0 min 31 sec) 
Heartbeat CPU  0 instructions:    6000000 cycles:    2179888 heartbeat IPC: 2.13761 cumulative IPC: 2.75243 (Simulation time: 0 hr 0 min 33 sec) 
Heartbeat CPU  3 instructions:    6000001 cycles:    2300697 heartbeat IPC: 2.28516 cumulative IPC: 2.60791 (Simulation time: 0 hr 0 min 35 sec) 
Heartbeat CPU  1 instructions:    5000000 cycles:    2349553 heartbeat IPC: 3.07414 cumulative IPC: 2.12806 (Simulation time: 0 hr 0 min 36 sec) 
Heartbeat CPU  0 instructions:    7000003 cycles:    2504742 heartbeat IPC: 3.07832 cumulative IPC: 2.79470 (Simulation time: 0 hr 0 min 38 sec) 
Heartbeat CPU  2 instructions:    7000002 cycles:    2602853 heartbeat IPC: 1.76495 cumulative IPC: 2.68936 (Simulation time: 0 hr 0 min 40 sec) 
Heartbeat CPU  3 instructions:    7000000 cycles:    2626259 heartbeat IPC: 3.07161 cumulative IPC: 2.66539 (Simulation time: 0 hr 0 min 40 sec) 
Heartbeat CPU  1 instructions:    6000001 cycles:    2710652 heartbeat IPC: 2.76933 cumulative IPC: 2.21349 (Simulation time: 0 hr 0 min 42 sec) 
Heartbeat CPU  0 instructions:    8000000 cycles:    2814018 heartbeat IPC: 3.23335 cumulative IPC: 2.84291 (Simulation time: 0 hr 0 min 43 sec) 
Heartbeat CPU  3 instructions:    8000000 cycles:    2951853 heartbeat IPC: 3.07131 cumulative IPC: 2.71016 (Simulation time: 0 hr 0 min 46 sec) 
Heartbeat CPU  2 instructions:    8000000 cycles:    2957530 heartbeat IPC: 2.81946 cumulative IPC: 2.70496 (Simulation time: 0 hr 0 min 46 sec) 
Heartbeat CPU  1 instructions:    7000000 cycles:    3037614 heartbeat IPC: 3.05846 cumulative IPC: 2.30444 (Simulation time: 0 hr 0 min 47 sec) 
Heartbeat CPU  0 instructions:    9000001 cycles:    3140311 heartbeat IPC: 3.06473 cumulative IPC: 2.86596 (Simulation time: 0 hr 0 min 49 sec) 
Heartbeat CPU  2 instructions:    9000001 cycles:    3279591 heartbeat IPC: 3.10501 cumulative IPC: 2.74425 (Simulation time: 0 hr 0 min 51 sec) 
Heartbeat CPU  3 instructions:    9000002 cycles:    3336620 heartbeat IPC: 2.59898 cumulative IPC: 2.69734 (Simulation time: 0 hr 0 min 52 sec) 
Heartbeat CPU  1 instructions:    8000000 cycles:    3362523 heartbeat IPC: 3.07778 cumulative IPC: 2.37917 (Simulation time: 0 hr 0 min 53 sec) 
Heartbeat CPU  0 instructions:   10000001 cycles:    3537586 heartbeat IPC: 2.51715 cumulative IPC: 2.82679 (Simulation time: 0 hr 0 min 56 sec) 
Heartbeat CPU  2 instructions:   10000001 cycles:    3601938 heartbeat IPC: 3.10225 cumulative IPC: 2.77628 (Simulation time: 0 hr 0 min 57 sec) 
Heartbeat CPU  3 instructions:   10000003 cycles:    3663592 heartbeat IPC: 3.05837 cumulative IPC: 2.72956 (Simulation time: 0 hr 0 min 58 sec) 
Heartbeat CPU  1 instructions:    9000002 cycles:    3683181 heartbeat IPC: 3.11859 cumulative IPC: 2.44354 (Simulation time: 0 hr 0 min 58 sec) 
Heartbeat CPU  2 instructions:   11000002 cycles:    3922271 heartbeat IPC: 3.12175 cumulative IPC: 2.80450 (Simulation time: 0 hr 1 min 2 sec) 
Heartbeat CPU  3 instructions:   11000001 cycles:    3989825 heartbeat IPC: 3.06529 cumulative IPC: 2.75701 (Simulation time: 0 hr 1 min 3 sec) 
Heartbeat CPU  1 instructions:   10000003 cycles:    4007869 heartbeat IPC: 3.07988 cumulative IPC: 2.49509 (Simulation time: 0 hr 1 min 3 sec) 
Heartbeat CPU  0 instructions:   11000003 cycles:    4045525 heartbeat IPC: 1.96874 cumulative IPC: 2.71905 (Simulation time: 0 hr 1 min 4 sec) 
Heartbeat CPU  0 instructions:   12000000 cycles:    4366859 heartbeat IPC: 3.11202 cumulative IPC: 2.74797 (Simulation time: 0 hr 1 min 9 sec) 
Heartbeat CPU  3 instructions:   12000000 cycles:    4374808 heartbeat IPC: 2.59751 cumulative IPC: 2.74298 (Simulation time: 0 hr 1 min 9 sec) 
Heartbeat CPU  2 instructions:   12000000 cycles:    4421439 heartbeat IPC: 2.00333 cumulative IPC: 2.71405 (Simulation time: 0 hr 1 min 10 sec) 
Heartbeat CPU  1 instructions:   11000000 cycles:    4428003 heartbeat IPC: 2.38019 cumulative IPC: 2.48419 (Simulation time: 0 hr 1 min 10 sec) 
Heartbeat CPU  0 instructions:   13000002 cycles:    4681765 heartbeat IPC: 3.17556 cumulative IPC: 2.77673 (Simulation time: 0 hr 1 min 14 sec) 
Heartbeat CPU  2 instructions:   13000003 cycles:    4789828 heartbeat IPC: 2.71453 cumulative IPC: 2.71409 (Simulation time: 0 hr 1 min 16 sec) 
Heartbeat CPU  1 instructions:   12000000 cycles:    4794774 heartbeat IPC: 2.72650 cumulative IPC: 2.50272 (Simulation time: 0 hr 1 min 16 sec) 
Heartbeat CPU  3 instructions:   13000002 cycles:    4831707 heartbeat IPC: 2.18867 cumulative IPC: 2.69056 (Simulation time: 0 hr 1 min 16 sec) 
Heartbeat CPU  2 instructions:   14000000 cycles:    5153363 heartbeat IPC: 2.75076 cumulative IPC: 2.71667 (Simulation time: 0 hr 1 min 21 sec) 
Heartbeat CPU  0 instructions:   14000002 cycles:    5162521 heartbeat IPC: 2.08006 cumulative IPC: 2.71185 (Simulation time: 0 hr 1 min 21 sec) 
Heartbeat CPU  3 instructions:   14000003 cycles:    5232897 heartbeat IPC: 2.49259 cumulative IPC: 2.67538 (Simulation time: 0 hr 1 min 22 sec) 
Heartbeat CPU  1 instructions:   13000001 cycles:    5463252 heartbeat IPC: 1.49594 cumulative IPC: 2.37954 (Simulation time: 0 hr 1 min 25 sec) 
Heartbeat CPU  2 instructions:   15000000 cycles:    5478201 heartbeat IPC: 3.07846 cumulative IPC: 2.73813 (Simulation time: 0 hr 1 min 25 sec) 
Heartbeat CPU  3 instructions:   15000001 cycles:    5560487 heartbeat IPC: 3.05259 cumulative IPC: 2.69761 (Simulation time: 0 hr 1 min 27 sec) 
Heartbeat CPU  0 instructions:   15000001 cycles:    5662713 heartbeat IPC: 1.99923 cumulative IPC: 2.64891 (Simulation time: 0 hr 1 min 28 sec) 
Heartbeat CPU  1 instructions:   14000002 cycles:    5784111 heartbeat IPC: 3.11664 cumulative IPC: 2.42042 (Simulation time: 0 hr 1 min 30 sec) 
Heartbeat CPU  2 instructions:   16000000 cycles:    5800253 heartbeat IPC: 3.10509 cumulative IPC: 2.75850 (Simulation time: 0 hr 1 min 30 sec) 
Heartbeat CPU  3 instructions:   16000000 cycles:    5962884 heartbeat IPC: 2.48511 cumulative IPC: 2.68327 (Simulation time: 0 hr 1 min 33 sec) 
Heartbeat CPU  0 instructions:   16000000 cycles:    6117457 heartbeat IPC: 2.19904 cumulative IPC: 2.61547 (Simulation time: 0 hr 1 min 35 sec) 
Heartbeat CPU  1 instructions:   15000000 cycles:    6155049 heartbeat IPC: 2.69586 cumulative IPC: 2.43702 (Simulation time: 0 hr 1 min 36 sec) 
Heartbeat CPU  2 instructions:   17000002 cycles:    6178942 heartbeat IPC: 2.64069 cumulative IPC: 2.75128 (Simulation time: 0 hr 1 min 36 sec) 
Heartbeat CPU  3 instructions:   17000003 cycles:    6326618 heartbeat IPC: 2.74927 cumulative IPC: 2.68706 (Simulation time: 0 hr 1 min 38 sec) 
Heartbeat CPU  1 instructions:   16000000 cycles:    6517477 heartbeat IPC: 2.75917 cumulative IPC: 2.45494 (Simulation time: 0 hr 1 min 41 sec) 
Heartbeat CPU  2 instructions:   18000003 cycles:    6550856 heartbeat IPC: 2.68880 cumulative IPC: 2.74773 (Simulation time: 0 hr 1 min 42 sec) 
Heartbeat CPU  0 instructions:   17000002 cycles:    6580926 heartbeat IPC: 2.15765 cumulative IPC: 2.58322 (Simulation time: 0 hr 1 min 42 sec) 
Heartbeat CPU  3 instructions:   18000000 cycles:    6650286 heartbeat IPC: 3.08958 cumulative IPC: 2.70665 (Simulation time: 0 hr 1 min 44 sec) 
Heartbeat CPU  1 instructions:   17000002 cycles:    6853984 heartbeat IPC: 2.97171 cumulative IPC: 2.48031 (Simulation time: 0 hr 1 min 47 sec) 
Heartbeat CPU  2 instructions:   19000002 cycles:    6876936 heartbeat IPC: 3.06673 cumulative IPC: 2.76286 (Simulation time: 0 hr 1 min 47 sec) 
Heartbeat CPU  0 instructions:   18000000 cycles:    6955178 heartbeat IPC: 2.67199 cumulative IPC: 2.58800 (Simulation time: 0 hr 1 min 49 sec) 
Heartbeat CPU  3 instructions:   19000003 cycles:    6973211 heartbeat IPC: 3.09670 cumulative IPC: 2.72471 (Simulation time: 0 hr 1 min 49 sec) 
Heartbeat CPU  2 instructions:   20000000 cycles:    7201501 heartbeat IPC: 3.08104 cumulative IPC: 2.77720 (Simulation time: 0 hr 1 min 53 sec) 
Heartbeat CPU  1 instructions:   18000000 cycles:    7258428 heartbeat IPC: 2.47253 cumulative IPC: 2.47988 (Simulation time: 0 hr 1 min 54 sec) 
Heartbeat CPU  0 instructions:   19000001 cycles:    7278069 heartbeat IPC: 3.09702 cumulative IPC: 2.61058 (Simulation time: 0 hr 1 min 54 sec) 
Heartbeat CPU  3 instructions:   20000000 cycles:    7296549 heartbeat IPC: 3.09273 cumulative IPC: 2.74102 (Simulation time: 0 hr 1 min 54 sec) 
Heartbeat CPU  1 instructions:   19000000 cycles:    7585885 heartbeat IPC: 3.05384 cumulative IPC: 2.50465 (Simulation time: 0 hr 1 min 58 sec) 
Heartbeat CPU  0 instructions:   20000000 cycles:    7661069 heartbeat IPC: 2.61096 cumulative IPC: 2.61060 (Simulation time: 0 hr 2 min 0 sec) 
Heartbeat CPU  2 instructions:   21000000 cycles:    7773213 heartbeat IPC: 1.74913 cumulative IPC: 2.70159 (Simulation time: 0 hr 2 min 1 sec) 
Heartbeat CPU  3 instructions:   21000000 cycles:    7780519 heartbeat IPC: 2.06624 cumulative IPC: 2.69905 (Simulation time: 0 hr 2 min 1 sec) 
Heartbeat CPU  1 instructions:   20000000 cycles:    7913742 heartbeat IPC: 3.05011 cumulative IPC: 2.52725 (Simulation time: 0 hr 2 min 3 sec) 
Heartbeat CPU  0 instructions:   21000002 cycles:    7983764 heartbeat IPC: 3.09891 cumulative IPC: 2.63034 (Simulation time: 0 hr 2 min 4 sec) 
Heartbeat CPU  0 instructions:   22000003 cycles:    8306133 heartbeat IPC: 3.10204 cumulative IPC: 2.64865 (Simulation time: 0 hr 2 min 9 sec) 
Heartbeat CPU  3 instructions:   22000001 cycles:    8310670 heartbeat IPC: 1.88626 cumulative IPC: 2.64720 (Simulation time: 0 hr 2 min 9 sec) 
Heartbeat CPU  2 instructions:   22000000 cycles:    8314896 heartbeat IPC: 1.84610 cumulative IPC: 2.64585 (Simulation time: 0 hr 2 min 9 sec) 
Heartbeat CPU  1 instructions:   21000000 cycles:    8358585 heartbeat IPC: 2.24798 cumulative IPC: 2.51239 (Simulation time: 0 hr 2 min 10 sec) 
Heartbeat CPU  0 instructions:   23000000 cycles:    8631492 heartbeat IPC: 3.07352 cumulative IPC: 2.66466 (Simulation time: 0 hr 2 min 14 sec) 
Heartbeat CPU  3 instructions:   23000001 cycles:    8633427 heartbeat IPC: 3.09831 cumulative IPC: 2.66406 (Simulation time: 0 hr 2 min 14 sec) 
Heartbeat CPU  1 instructions:   22000001 cycles:    8758499 heartbeat IPC: 2.50054 cumulative IPC: 2.51185 (Simulation time: 0 hr 2 min 16 sec) 
Heartbeat CPU  2 instructions:   23000002 cycles:    8764345 heartbeat IPC: 2.22495 cumulative IPC: 2.62427 (Simulation time: 0 hr 2 min 16 sec) 
Heartbeat CPU  3 instructions:   24000000 cycles:    8964222 heartbeat IPC: 3.02302 cumulative IPC: 2.67731 (Simulation time: 0 hr 2 min 19 sec) 
Heartbeat CPU  0 instructions:   24000000 cycles:    9088468 heartbeat IPC: 2.18830 cumulative IPC: 2.64071 (Simulation time: 0 hr 2 min 21 sec) 
Heartbeat CPU  1 instructions:   23000000 cycles:    9088875 heartbeat IPC: 3.02685 cumulative IPC: 2.53057 (Simulation time: 0 hr 2 min 21 sec) 
Heartbeat CPU  3 instructions:   25000001 cycles:    9339576 heartbeat IPC: 2.66415 cumulative IPC: 2.67678 (Simulation time: 0 hr 2 min 24 sec) 
Heartbeat CPU  2 instructions:   24000000 cycles:    9480246 heartbeat IPC: 1.39684 cumulative IPC: 2.53158 (Simulation time: 0 hr 2 min 25 sec) 
Heartbeat CPU  1 instructions:   24000000 cycles:    9503080 heartbeat IPC: 2.41426 cumulative IPC: 2.52550 (Simulation time: 0 hr 2 min 26 sec) 
Heartbeat CPU  0 instructions:   25000001 cycles:    9724595 heartbeat IPC: 1.57201 cumulative IPC: 2.57080 (Simulation time: 0 hr 2 min 29 sec) 
Heartbeat CPU  1 instructions:   25000002 cycles:    9860109 heartbeat IPC: 2.80090 cumulative IPC: 2.53547 (Simulation time: 0 hr 2 min 31 sec) 
Heartbeat CPU  2 instructions:   25000002 cycles:    9889935 heartbeat IPC: 2.44088 cumulative IPC: 2.52782 (Simulation time: 0 hr 2 min 31 sec) 
Heartbeat CPU  3 instructions:   26000001 cycles:    9957421 heartbeat IPC: 1.61853 cumulative IPC: 2.61112 (Simulation time: 0 hr 2 min 32 sec) 
Heartbeat CPU  0 instructions:   26000000 cycles:   10083613 heartbeat IPC: 2.78537 cumulative IPC: 2.57844 (Simulation time: 0 hr 2 min 34 sec) 
Heartbeat CPU  1 instructions:   26000001 cycles:   10377576 heartbeat IPC: 1.93249 cumulative IPC: 2.50540 (Simulation time: 0 hr 2 min 37 sec) 
Heartbeat CPU  2 instructions:   26000000 cycles:   10390087 heartbeat IPC: 1.99939 cumulative IPC: 2.50239 (Simulation time: 0 hr 2 min 37 sec) 
Heartbeat CPU  3 instructions:   27000002 cycles:   10600539 heartbeat IPC: 1.55493 cumulative IPC: 2.54704 (Simulation time: 0 hr 2 min 39 sec) 
Heartbeat CPU  0 instructions:   27000001 cycles:   10725515 heartbeat IPC: 1.55787 cumulative IPC: 2.51736 (Simulation time: 0 hr 2 min 41 sec) 
Heartbeat CPU  2 instructions:   27000002 cycles:   10890398 heartbeat IPC: 1.99876 cumulative IPC: 2.47925 (Simulation time: 0 hr 2 min 43 sec) 
Heartbeat CPU  1 instructions:   27000001 cycles:   10984493 heartbeat IPC: 1.64767 cumulative IPC: 2.45801 (Simulation time: 0 hr 2 min 44 sec) 
Heartbeat CPU  3 instructions:   28000000 cycles:   11215603 heartbeat IPC: 1.62584 cumulative IPC: 2.49652 (Simulation time: 0 hr 2 min 47 sec) 
Heartbeat CPU  0 instructions:   28000000 cycles:   11352665 heartbeat IPC: 1.59451 cumulative IPC: 2.46638 (Simulation time: 0 hr 2 min 48 sec) 
Heartbeat CPU  2 instructions:   28000000 cycles:   11458926 heartbeat IPC: 1.75892 cumulative IPC: 2.44351 (Simulation time: 0 hr 2 min 49 sec) 
Heartbeat CPU  1 instructions:   28000000 cycles:   11563216 heartbeat IPC: 1.72794 cumulative IPC: 2.42147 (Simulation time: 0 hr 2 min 50 sec) 
Heartbeat CPU  3 instructions:   29000001 cycles:   11719296 heartbeat IPC: 1.98534 cumulative IPC: 2.47455 (Simulation time: 0 hr 2 min 52 sec) 
Heartbeat CPU  0 instructions:   29000003 cycles:   11849825 heartbeat IPC: 2.01143 cumulative IPC: 2.44729 (Simulation time: 0 hr 2 min 54 sec) 
Heartbeat CPU  2 instructions:   29000001 cycles:   11964160 heartbeat IPC: 1.97928 cumulative IPC: 2.42391 (Simulation time: 0 hr 2 min 55 sec) 
Heartbeat CPU  1 instructions:   29000003 cycles:   12067150 heartbeat IPC: 1.98439 cumulative IPC: 2.40322 (Simulation time: 0 hr 2 min 56 sec) 
Heartbeat CPU  3 instructions:   30000000 cycles:   12251460 heartbeat IPC: 1.87912 cumulative IPC: 2.44869 (Simulation time: 0 hr 2 min 58 sec) 
Heartbeat CPU  0 instructions:   30000001 cycles:   12355906 heartbeat IPC: 1.97596 cumulative IPC: 2.42799 (Simulation time: 0 hr 3 min 0 sec) 
Heartbeat CPU  2 instructions:   30000003 cycles:   12523897 heartbeat IPC: 1.78656 cumulative IPC: 2.39542 (Simulation time: 0 hr 3 min 2 sec) 
Heartbeat CPU  1 instructions:   30000002 cycles:   12614697 heartbeat IPC: 1.82633 cumulative IPC: 2.37818 (Simulation time: 0 hr 3 min 3 sec) 
Heartbeat CPU  3 instructions:   31000000 cycles:   12933847 heartbeat IPC: 1.46544 cumulative IPC: 2.39681 (Simulation time: 0 hr 3 min 6 sec) 
Heartbeat CPU  0 instructions:   31000002 cycles:   12953587 heartbeat IPC: 1.67314 cumulative IPC: 2.39316 (Simulation time: 0 hr 3 min 6 sec) 
Heartbeat CPU  2 instructions:   31000000 cycles:   13211585 heartbeat IPC: 1.45414 cumulative IPC: 2.34643 (Simulation time: 0 hr 3 min 8 sec) 
Heartbeat CPU  1 instructions:   31000001 cycles:   13315646 heartbeat IPC: 1.42664 cumulative IPC: 2.32809 (Simulation time: 0 hr 3 min 9 sec) 
Heartbeat CPU  3 instructions:   32000000 cycles:   13582248 heartbeat IPC: 1.54226 cumulative IPC: 2.35602 (Simulation time: 0 hr 3 min 11 sec) 
Heartbeat CPU  0 instructions:   32000000 cycles:   13583397 heartbeat IPC: 1.58778 cumulative IPC: 2.35582 (Simulation time: 0 hr 3 min 11 sec) 
Heartbeat CPU  2 instructions:   32000000 cycles:   13804315 heartbeat IPC: 1.68711 cumulative IPC: 2.31812 (Simulation time: 0 hr 3 min 14 sec) 
Heartbeat CPU  1 instructions:   32000000 cycles:   13942801 heartbeat IPC: 1.59450 cumulative IPC: 2.29509 (Simulation time: 0 hr 3 min 16 sec) 
Heartbeat CPU  3 instructions:   33000000 cycles:   14042091 heartbeat IPC: 2.17466 cumulative IPC: 2.35008 (Simulation time: 0 hr 3 min 17 sec) 
Heartbeat CPU  0 instructions:   33000000 cycles:   14052719 heartbeat IPC: 2.13073 cumulative IPC: 2.34830 (Simulation time: 0 hr 3 min 17 sec) 
Heartbeat CPU  2 instructions:   33000002 cycles:   14268622 heartbeat IPC: 2.15375 cumulative IPC: 2.31277 (Simulation time: 0 hr 3 min 20 sec) 
Heartbeat CPU  1 instructions:   33000000 cycles:   14543510 heartbeat IPC: 1.66470 cumulative IPC: 2.26905 (Simulation time: 0 hr 3 min 23 sec) 
Heartbeat CPU  3 instructions:   34000002 cycles:   14574983 heartbeat IPC: 1.87656 cumulative IPC: 2.33276 (Simulation time: 0 hr 3 min 23 sec) 
Heartbeat CPU  0 instructions:   34000002 cycles:   14614599 heartbeat IPC: 1.77974 cumulative IPC: 2.32644 (Simulation time: 0 hr 3 min 24 sec) 
Heartbeat CPU  2 instructions:   34000000 cycles:   14823970 heartbeat IPC: 1.80067 cumulative IPC: 2.29358 (Simulation time: 0 hr 3 min 26 sec) 
Heartbeat CPU  0 instructions:   35000000 cycles:   15070776 heartbeat IPC: 2.19213 cumulative IPC: 2.32238 (Simulation time: 0 hr 3 min 29 sec) 
Heartbeat CPU  3 instructions:   35000002 cycles:   15105922 heartbeat IPC: 1.88346 cumulative IPC: 2.31697 (Simulation time: 0 hr 3 min 29 sec) 
Heartbeat CPU  1 instructions:   34000002 cycles:   15152995 heartbeat IPC: 1.64073 cumulative IPC: 2.24378 (Simulation time: 0 hr 3 min 30 sec) 
Heartbeat CPU  2 instructions:   35000001 cycles:   15290653 heartbeat IPC: 2.14278 cumulative IPC: 2.28898 (Simulation time: 0 hr 3 min 32 sec) 
Heartbeat CPU  0 instructions:   36000000 cycles:   15548419 heartbeat IPC: 2.09361 cumulative IPC: 2.31535 (Simulation time: 0 hr 3 min 35 sec) 
Heartbeat CPU  3 instructions:   36000000 cycles:   15596768 heartbeat IPC: 2.03729 cumulative IPC: 2.30817 (Simulation time: 0 hr 3 min 36 sec) 
Heartbeat CPU  1 instructions:   35000000 cycles:   15628390 heartbeat IPC: 2.10351 cumulative IPC: 2.23951 (Simulation time: 0 hr 3 min 36 sec) 
Heartbeat CPU  2 instructions:   36000000 cycles:   15757296 heartbeat IPC: 2.14296 cumulative IPC: 2.28466 (Simulation time: 0 hr 3 min 37 sec) 
Heartbeat CPU  0 instructions:   37000000 cycles:   16002092 heartbeat IPC: 2.20423 cumulative IPC: 2.31220 (Simulation time: 0 hr 3 min 41 sec) 
Heartbeat CPU  3 instructions:   37000003 cycles:   16059891 heartbeat IPC: 2.15926 cumulative IPC: 2.30388 (Simulation time: 0 hr 3 min 41 sec) 
Heartbeat CPU  1 instructions:   36000000 cycles:   16119812 heartbeat IPC: 2.03491 cumulative IPC: 2.23328 (Simulation time: 0 hr 3 min 42 sec) 
Heartbeat CPU  2 instructions:   37000003 cycles:   16224810 heartbeat IPC: 2.13898 cumulative IPC: 2.28046 (Simulation time: 0 hr 3 min 43 sec) 
Heartbeat CPU  0 instructions:   38000000 cycles:   16487123 heartbeat IPC: 2.06172 cumulative IPC: 2.30483 (Simulation time: 0 hr 3 min 47 sec) 
Heartbeat CPU  3 instructions:   38000003 cycles:   16509110 heartbeat IPC: 2.22609 cumulative IPC: 2.30176 (Simulation time: 0 hr 3 min 47 sec) 
Heartbeat CPU  1 instructions:   37000003 cycles:   16598126 heartbeat IPC: 2.09068 cumulative IPC: 2.22917 (Simulation time: 0 hr 3 min 48 sec) 
Heartbeat CPU  2 instructions:   38000002 cycles:   16748296 heartbeat IPC: 1.91027 cumulative IPC: 2.26889 (Simulation time: 0 hr 3 min 50 sec) 
Heartbeat CPU  3 instructions:   39000001 cycles:   16921773 heartbeat IPC: 2.42328 cumulative IPC: 2.30472 (Simulation time: 0 hr 3 min 52 sec) 
Heartbeat CPU  0 instructions:   39000002 cycles:   16969999 heartbeat IPC: 2.07093 cumulative IPC: 2.29817 (Simulation time: 0 hr 3 min 53 sec) 
Heartbeat CPU  1 instructions:   38000002 cycles:   17065164 heartbeat IPC: 2.14115 cumulative IPC: 2.22676 (Simulation time: 0 hr 3 min 54 sec) 
Heartbeat CPU  2 instructions:   39000003 cycles:   17181914 heartbeat IPC: 2.30618 cumulative IPC: 2.26983 (Simulation time: 0 hr 3 min 55 sec) 
Heartbeat CPU  3 instructions:   40000000 cycles:   17375273 heartbeat IPC: 2.20507 cumulative IPC: 2.30212 (Simulation time: 0 hr 3 min 58 sec) 
Heartbeat CPU  0 instructions:   40000000 cycles:   17446995 heartbeat IPC: 2.09645 cumulative IPC: 2.29266 (Simulation time: 0 hr 3 min 59 sec) 
Heartbeat CPU  1 instructions:   39000001 cycles:   17482161 heartbeat IPC: 2.39810 cumulative IPC: 2.23085 (Simulation time: 0 hr 4 min 0 sec) 
Heartbeat CPU  2 instructions:   40000000 cycles:   17625915 heartbeat IPC: 2.25224 cumulative IPC: 2.26939 (Simulation time: 0 hr 4 min 1 sec) 
Heartbeat CPU  3 instructions:   41000002 cycles:   17834002 heartbeat IPC: 2.17994 cumulative IPC: 2.29898 (Simulation time: 0 hr 4 min 4 sec) 
Heartbeat CPU  1 instructions:   40000000 cycles:   17927203 heartbeat IPC: 2.24698 cumulative IPC: 2.23125 (Simulation time: 0 hr 4 min 5 sec) 
Heartbeat CPU  0 instructions:   41000003 cycles:   18027054 heartbeat IPC: 1.72397 cumulative IPC: 2.27436 (Simulation time: 0 hr 4 min 6 sec) 
Heartbeat CPU  2 instructions:   41000003 cycles:   18075140 heartbeat IPC: 2.22606 cumulative IPC: 2.26831 (Simulation time: 0 hr 4 min 7 sec) 
Heartbeat CPU  3 instructions:   42000002 cycles:   18405360 heartbeat IPC: 1.75022 cumulative IPC: 2.28194 (Simulation time: 0 hr 4 min 10 sec) 
Heartbeat CPU  1 instructions:   41000003 cycles:   18416317 heartbeat IPC: 2.04452 cumulative IPC: 2.22629 (Simulation time: 0 hr 4 min 10 sec) 
Heartbeat CPU  0 instructions:   42000000 cycles:   18555449 heartbeat IPC: 1.89252 cumulative IPC: 2.26349 (Simulation time: 0 hr 4 min 12 sec) 
Heartbeat CPU  2 instructions:   42000001 cycles:   18580015 heartbeat IPC: 1.98068 cumulative IPC: 2.26049 (Simulation time: 0 hr 4 min 12 sec) 
Heartbeat CPU  3 instructions:   43000000 cycles:   18915477 heartbeat IPC: 1.96033 cumulative IPC: 2.27327 (Simulation time: 0 hr 4 min 16 sec) 
Heartbeat CPU  1 instructions:   42000003 cycles:   18932205 heartbeat IPC: 1.93841 cumulative IPC: 2.21844 (Simulation time: 0 hr 4 min 16 sec) 
Heartbeat CPU  0 instructions:   43000000 cycles:   19060929 heartbeat IPC: 1.97832 cumulative IPC: 2.25592 (Simulation time: 0 hr 4 min 18 sec) 
Heartbeat CPU  2 instructions:   43000002 cycles:   19136525 heartbeat IPC: 1.79691 cumulative IPC: 2.24701 (Simulation time: 0 hr 4 min 19 sec) 
Heartbeat CPU  3 instructions:   44000000 cycles:   19395087 heartbeat IPC: 2.08503 cumulative IPC: 2.26862 (Simulation time: 0 hr 4 min 21 sec) 
Heartbeat CPU  1 instructions:   43000003 cycles:   19497276 heartbeat IPC: 1.76969 cumulative IPC: 2.20544 (Simulation time: 0 hr 4 min 22 sec) 
Heartbeat CPU  2 instructions:   44000000 cycles:   19612327 heartbeat IPC: 2.10171 cumulative IPC: 2.24349 (Simulation time: 0 hr 4 min 24 sec) 
Heartbeat CPU  0 instructions:   44000000 cycles:   19671298 heartbeat IPC: 1.63835 cumulative IPC: 2.23676 (Simulation time: 0 hr 4 min 24 sec) 
Heartbeat CPU  1 instructions:   44000000 cycles:   20016098 heartbeat IPC: 1.92744 cumulative IPC: 2.19823 (Simulation time: 0 hr 4 min 27 sec) 
Heartbeat CPU  3 instructions:   45000000 cycles:   20113164 heartbeat IPC: 1.39261 cumulative IPC: 2.23734 (Simulation time: 0 hr 4 min 28 sec) 
Heartbeat CPU  0 instructions:   45000002 cycles:   20267471 heartbeat IPC: 1.67737 cumulative IPC: 2.22031 (Simulation time: 0 hr 4 min 30 sec) 
Heartbeat CPU  2 instructions:   45000000 cycles:   20296271 heartbeat IPC: 1.46211 cumulative IPC: 2.21716 (Simulation time: 0 hr 4 min 30 sec) 
Heartbeat CPU  3 instructions:   46000002 cycles:   20662925 heartbeat IPC: 1.81898 cumulative IPC: 2.22621 (Simulation time: 0 hr 4 min 34 sec) 
Heartbeat CPU  1 instructions:   45000002 cycles:   20679885 heartbeat IPC: 1.50651 cumulative IPC: 2.17603 (Simulation time: 0 hr 4 min 34 sec) 
Heartbeat CPU  0 instructions:   46000001 cycles:   20838032 heartbeat IPC: 1.75266 cumulative IPC: 2.20750 (Simulation time: 0 hr 4 min 35 sec) 
Heartbeat CPU  2 instructions:   46000003 cycles:   20862357 heartbeat IPC: 1.76652 cumulative IPC: 2.20493 (Simulation time: 0 hr 4 min 36 sec) 
Heartbeat CPU  1 instructions:   46000001 cycles:   21227279 heartbeat IPC: 1.82684 cumulative IPC: 2.16702 (Simulation time: 0 hr 4 min 39 sec) 
Heartbeat CPU  3 instructions:   47000002 cycles:   21309843 heartbeat IPC: 1.54579 cumulative IPC: 2.20555 (Simulation time: 0 hr 4 min 40 sec) 
Heartbeat CPU  0 instructions:   47000001 cycles:   21466282 heartbeat IPC: 1.59172 cumulative IPC: 2.18948 (Simulation time: 0 hr 4 min 41 sec) 
Heartbeat CPU  2 instructions:   47000000 cycles:   21507353 heartbeat IPC: 1.55039 cumulative IPC: 2.18530 (Simulation time: 0 hr 4 min 42 sec) 
Heartbeat CPU  1 instructions:   47000000 cycles:   21845632 heartbeat IPC: 1.61720 cumulative IPC: 2.15146 (Simulation time: 0 hr 4 min 45 sec) 
Heartbeat CPU  3 instructions:   48000000 cycles:   21847833 heartbeat IPC: 1.85877 cumulative IPC: 2.19701 (Simulation time: 0 hr 4 min 45 sec) 
Heartbeat CPU  0 instructions:   48000000 cycles:   22019236 heartbeat IPC: 1.80847 cumulative IPC: 2.17991 (Simulation time: 0 hr 4 min 47 sec) 
Heartbeat CPU  2 instructions:   48000000 cycles:   22150094 heartbeat IPC: 1.55584 cumulative IPC: 2.16703 (Simulation time: 0 hr 4 min 48 sec) 
Heartbeat CPU  3 instructions:   49000003 cycles:   22400245 heartbeat IPC: 1.81025 cumulative IPC: 2.18748 (Simulation time: 0 hr 4 min 51 sec) 
Heartbeat CPU  1 instructions:   48000000 cycles:   22405776 heartbeat IPC: 1.78526 cumulative IPC: 2.14230 (Simulation time: 0 hr 4 min 51 sec) 
Heartbeat CPU  0 instructions:   49000000 cycles:   22544066 heartbeat IPC: 1.90538 cumulative IPC: 2.17352 (Simulation time: 0 hr 4 min 53 sec) 
Heartbeat CPU  2 instructions:   49000001 cycles:   22766852 heartbeat IPC: 1.62138 cumulative IPC: 2.15225 (Simulation time: 0 hr 4 min 56 sec) 
Heartbeat CPU  3 instructions:   50000001 cycles:   22865432 heartbeat IPC: 2.14967 cumulative IPC: 2.18671 (Simulation time: 0 hr 4 min 57 sec) 
Heartbeat CPU  1 instructions:   49000001 cycles:   23019052 heartbeat IPC: 1.63059 cumulative IPC: 2.12867 (Simulation time: 0 hr 4 min 58 sec) 
Heartbeat CPU  3 instructions:   51000003 cycles:   23197021 heartbeat IPC: 3.01579 cumulative IPC: 0.04311 (Simulation time: 0 hr 5 min 0 sec) 
Heartbeat CPU  0 instructions:   50000003 cycles:   23320972 heartbeat IPC: 1.28716 cumulative IPC: 2.14399 (Simulation time: 0 hr 5 min 2 sec) 
Heartbeat CPU  2 instructions:   50000003 cycles:   23483233 heartbeat IPC: 1.39591 cumulative IPC: 2.12918 (Simulation time: 0 hr 5 min 3 sec) 
Heartbeat CPU  3 instructions:   52000000 cycles:   23533854 heartbeat IPC: 2.96882 cumulative IPC: 0.08498 (Simulation time: 0 hr 5 min 4 sec) 
Heartbeat CPU  1 instructions:   50000002 cycles:   23604690 heartbeat IPC: 1.70754 cumulative IPC: 2.11822 (Simulation time: 0 hr 5 min 5 sec) 

Warmup complete CPU  0 instructions:   50333358 cycles:   23604690 (Simulation time: 0 hr 5 min 5 sec) 
Warmup complete CPU  1 instructions:   50000002 cycles:   23604690 (Simulation time: 0 hr 5 min 5 sec) 
Warmup complete CPU  2 instructions:   50128076 cycles:   23604690 (Simulation time: 0 hr 5 min 5 sec) 
Warmup complete CPU  3 instructions:   52208779 cycles:   23604689 (Simulation time: 0 hr 5 min 5 sec) 

Heartbeat CPU  2 instructions:   51000000 cycles:   26394837 heartbeat IPC: 0.34345 cumulative IPC: 0.31250 (Simulation time: 0 hr 5 min 11 sec) 
Heartbeat CPU  3 instructions:   53000001 cycles:   26983595 heartbeat IPC: 0.28988 cumulative IPC: 0.23417 (Simulation time: 0 hr 5 min 13 sec) 
Heartbeat CPU  1 instructions:   51000001 cycles:   27035837 heartbeat IPC: 0.29145 cumulative IPC: 0.29145 (Simulation time: 0 hr 5 min 13 sec) 
Heartbeat CPU  0 instructions:   51000000 cycles:   27789249 heartbeat IPC: 0.22380 cumulative IPC: 0.15931 (Simulation time: 0 hr 5 min 15 sec) 
Heartbeat CPU  2 instructions:   52000000 cycles:   28894065 heartbeat IPC: 0.40012 cumulative IPC: 0.35390 (Simulation time: 0 hr 5 min 18 sec) 
Heartbeat CPU  3 instructions:   54000001 cycles:   30037960 heartbeat IPC: 0.32740 cumulative IPC: 0.27843 (Simulation time: 0 hr 5 min 21 sec) 
Heartbeat CPU  1 instructions:   52000000 cycles:   31636036 heartbeat IPC: 0.21738 cumulative IPC: 0.24902 (Simulation time: 0 hr 5 min 24 sec) 
Heartbeat CPU  2 instructions:   53000000 cycles:   31672830 heartbeat IPC: 0.35987 cumulative IPC: 0.35596 (Simulation time: 0 hr 5 min 24 sec) 
Heartbeat CPU  3 instructions:   55000003 cycles:   32792109 heartbeat IPC: 0.36309 cumulative IPC: 0.30381 (Simulation time: 0 hr 5 min 27 sec) 
Heartbeat CPU  0 instructions:   52000000 cycles:   33742733 heartbeat IPC: 0.16797 cumulative IPC: 0.16439 (Simulation time: 0 hr 5 min 29 sec) 
Heartbeat CPU  2 instructions:   54000000 cycles:   34643485 heartbeat IPC: 0.33663 cumulative IPC: 0.35076 (Simulation time: 0 hr 5 min 31 sec) 
Heartbeat CPU  1 instructions:   53000001 cycles:   35887974 heartbeat IPC: 0.23519 cumulative IPC: 0.24423 (Simulation time: 0 hr 5 min 35 sec) 
Heartbeat CPU  3 instructions:   56000000 cycles:   36010911 heartbeat IPC: 0.31067 cumulative IPC: 0.30559 (Simulation time: 0 hr 5 min 35 sec) 
Heartbeat CPU  0 instructions:   53000002 cycles:   37078083 heartbeat IPC: 0.29982 cumulative IPC: 0.19792 (Simulation time: 0 hr 5 min 38 sec) 
Heartbeat CPU  2 instructions:   55000000 cycles:   37678882 heartbeat IPC: 0.32945 cumulative IPC: 0.34616 (Simulation time: 0 hr 5 min 40 sec) 
Heartbeat CPU  1 instructions:   54000003 cycles:   38728956 heartbeat IPC: 0.35199 cumulative IPC: 0.26448 (Simulation time: 0 hr 5 min 43 sec) 
Heartbeat CPU  3 instructions:   57000003 cycles:   39028279 heartbeat IPC: 0.33142 cumulative IPC: 0.31064 (Simulation time: 0 hr 5 min 44 sec) 
Heartbeat CPU  0 instructions:   54000003 cycles:   39975907 heartbeat IPC: 0.34509 cumulative IPC: 0.22397 (Simulation time: 0 hr 5 min 46 sec) 
Heartbeat CPU  2 instructions:   56000000 cycles:   40214041 heartbeat IPC: 0.39445 cumulative IPC: 0.35353 (Simulation time: 0 hr 5 min 47 sec) 
Heartbeat CPU  1 instructions:   55000003 cycles:   41753774 heartbeat IPC: 0.33060 cumulative IPC: 0.27550 (Simulation time: 0 hr 5 min 52 sec) 
Heartbeat CPU  3 instructions:   58000001 cycles:   42105901 heartbeat IPC: 0.32493 cumulative IPC: 0.31302 (Simulation time: 0 hr 5 min 53 sec) 
Heartbeat CPU  2 instructions:   57000002 cycles:   42776086 heartbeat IPC: 0.39031 cumulative IPC: 0.35845 (Simulation time: 0 hr 5 min 55 sec) 
Heartbeat CPU  0 instructions:   55000003 cycles:   43047771 heartbeat IPC: 0.32554 cumulative IPC: 0.24002 (Simulation time: 0 hr 5 min 55 sec) 
Heartbeat CPU  3 instructions:   59000000 cycles:   44537828 heartbeat IPC: 0.41120 cumulative IPC: 0.32442 (Simulation time: 0 hr 6 min 0 sec) 
Heartbeat CPU  1 instructions:   56000000 cycles:   44619852 heartbeat IPC: 0.34891 cumulative IPC: 0.28551 (Simulation time: 0 hr 6 min 0 sec) 
Heartbeat CPU  2 instructions:   58000002 cycles:   45366019 heartbeat IPC: 0.38611 cumulative IPC: 0.36174 (Simulation time: 0 hr 6 min 3 sec) 
Heartbeat CPU  0 instructions:   56000000 cycles:   45469709 heartbeat IPC: 0.41289 cumulative IPC: 0.25916 (Simulation time: 0 hr 6 min 3 sec) 
Heartbeat CPU  3 instructions:   60000000 cycles:   46992907 heartbeat IPC: 0.40732 cumulative IPC: 0.33313 (Simulation time: 0 hr 6 min 8 sec) 
Heartbeat CPU  1 instructions:   57000000 cycles:   47314159 heartbeat IPC: 0.37115 cumulative IPC: 0.29524 (Simulation time: 0 hr 6 min 9 sec) 
Heartbeat CPU  2 instructions:   59000003 cycles:   47897879 heartbeat IPC: 0.39497 cumulative IPC: 0.36520 (Simulation time: 0 hr 6 min 10 sec) 
Heartbeat CPU  0 instructions:   57000003 cycles:   48104152 heartbeat IPC: 0.37959 cumulative IPC: 0.27211 (Simulation time: 0 hr 6 min 11 sec) 
Heartbeat CPU  3 instructions:   61000001 cycles:   49444594 heartbeat IPC: 0.40788 cumulative IPC: 0.34022 (Simulation time: 0 hr 6 min 15 sec) 
Heartbeat CPU  1 instructions:   58000003 cycles:   49577569 heartbeat IPC: 0.44181 cumulative IPC: 0.30801 (Simulation time: 0 hr 6 min 16 sec) 
Heartbeat CPU  0 instructions:   58000003 cycles:   50725600 heartbeat IPC: 0.38147 cumulative IPC: 0.28268 (Simulation time: 0 hr 6 min 19 sec) 
Heartbeat CPU  2 instructions:   60000000 cycles:   50834600 heartbeat IPC: 0.34051 cumulative IPC: 0.36254 (Simulation time: 0 hr 6 min 19 sec) 
Heartbeat CPU  3 instructions:   62000002 cycles:   51948217 heartbeat IPC: 0.39942 cumulative IPC: 0.34545 (Simulation time: 0 hr 6 min 23 sec) 
Heartbeat CPU  1 instructions:   59000001 cycles:   52510074 heartbeat IPC: 0.34100 cumulative IPC: 0.31136 (Simulation time: 0 hr 6 min 24 sec) 
Heartbeat CPU  0 instructions:   59000002 cycles:   53380967 heartbeat IPC: 0.37660 cumulative IPC: 0.29106 (Simulation time: 0 hr 6 min 27 sec) 
Heartbeat CPU  2 instructions:   61000000 cycles:   53578024 heartbeat IPC: 0.36451 cumulative IPC: 0.36272 (Simulation time: 0 hr 6 min 27 sec) 
Heartbeat CPU  3 instructions:   63000000 cycles:   54774520 heartbeat IPC: 0.35382 cumulative IPC: 0.34621 (Simulation time: 0 hr 6 min 31 sec) 
Heartbeat CPU  1 instructions:   60000000 cycles:   55269941 heartbeat IPC: 0.36234 cumulative IPC: 0.31580 (Simulation time: 0 hr 6 min 32 sec) 
Heartbeat CPU  0 instructions:   60000000 cycles:   56057799 heartbeat IPC: 0.37358 cumulative IPC: 0.29786 (Simulation time: 0 hr 6 min 34 sec) 
Heartbeat CPU  2 instructions:   62000000 cycles:   56874325 heartbeat IPC: 0.30337 cumulative IPC: 0.35684 (Simulation time: 0 hr 6 min 37 sec) 
Heartbeat CPU  3 instructions:   64000000 cycles:   57753369 heartbeat IPC: 0.33570 cumulative IPC: 0.34529 (Simulation time: 0 hr 6 min 39 sec) 
Heartbeat CPU  1 instructions:   61000000 cycles:   58148014 heartbeat IPC: 0.34745 cumulative IPC: 0.31844 (Simulation time: 0 hr 6 min 41 sec) 
Heartbeat CPU  0 instructions:   61000001 cycles:   58666152 heartbeat IPC: 0.38338 cumulative IPC: 0.30423 (Simulation time: 0 hr 6 min 42 sec) 
Heartbeat CPU  2 instructions:   63000002 cycles:   59185174 heartbeat IPC: 0.43274 cumulative IPC: 0.36177 (Simulation time: 0 hr 6 min 44 sec) 
Heartbeat CPU  3 instructions:   65000002 cycles:   60341405 heartbeat IPC: 0.38639 cumulative IPC: 0.34819 (Simulation time: 0 hr 6 min 47 sec) 
Heartbeat CPU  1 instructions:   62000000 cycles:   60744476 heartbeat IPC: 0.38514 cumulative IPC: 0.32310 (Simulation time: 0 hr 6 min 49 sec) 
Heartbeat CPU  0 instructions:   62000000 cycles:   61276239 heartbeat IPC: 0.38313 cumulative IPC: 0.30969 (Simulation time: 0 hr 6 min 50 sec) 
Heartbeat CPU  2 instructions:   64000000 cycles:   61851669 heartbeat IPC: 0.37502 cumulative IPC: 0.36269 (Simulation time: 0 hr 6 min 52 sec) 
Heartbeat CPU  3 instructions:   66000001 cycles:   63000874 heartbeat IPC: 0.37601 cumulative IPC: 0.35006 (Simulation time: 0 hr 6 min 55 sec) 
Heartbeat CPU  1 instructions:   63000002 cycles:   63734761 heartbeat IPC: 0.33442 cumulative IPC: 0.32395 (Simulation time: 0 hr 6 min 57 sec) 
Heartbeat CPU  0 instructions:   63000001 cycles:   64317235 heartbeat IPC: 0.32884 cumulative IPC: 0.31112 (Simulation time: 0 hr 6 min 59 sec) 
Heartbeat CPU  2 instructions:   65000002 cycles:   65162487 heartbeat IPC: 0.30204 cumulative IPC: 0.35786 (Simulation time: 0 hr 7 min 2 sec) 
Heartbeat CPU  3 instructions:   67000003 cycles:   65694285 heartbeat IPC: 0.37128 cumulative IPC: 0.35142 (Simulation time: 0 hr 7 min 5 sec) 
Heartbeat CPU  1 instructions:   64000000 cycles:   65701672 heartbeat IPC: 0.50841 cumulative IPC: 0.33257 (Simulation time: 0 hr 7 min 5 sec) 
Heartbeat CPU  0 instructions:   64000000 cycles:   66011203 heartbeat IPC: 0.59033 cumulative IPC: 0.32228 (Simulation time: 0 hr 7 min 6 sec) 
Heartbeat CPU  2 instructions:   66000003 cycles:   67381328 heartbeat IPC: 0.45069 cumulative IPC: 0.36257 (Simulation time: 0 hr 7 min 10 sec) 
Heartbeat CPU  1 instructions:   65000001 cycles:   68240997 heartbeat IPC: 0.39381 cumulative IPC: 0.33605 (Simulation time: 0 hr 7 min 12 sec) 
Heartbeat CPU  3 instructions:   68000000 cycles:   68298126 heartbeat IPC: 0.38405 cumulative IPC: 0.35332 (Simulation time: 0 hr 7 min 12 sec) 
Heartbeat CPU  0 instructions:   65000000 cycles:   69002286 heartbeat IPC: 0.33433 cumulative IPC: 0.32307 (Simulation time: 0 hr 7 min 14 sec) 
Heartbeat CPU  2 instructions:   67000002 cycles:   70098174 heartbeat IPC: 0.36807 cumulative IPC: 0.36289 (Simulation time: 0 hr 7 min 18 sec) 
Heartbeat CPU  1 instructions:   66000002 cycles:   70788522 heartbeat IPC: 0.39254 cumulative IPC: 0.33910 (Simulation time: 0 hr 7 min 20 sec) 
Heartbeat CPU  0 instructions:   66000002 cycles:   71187129 heartbeat IPC: 0.45770 cumulative IPC: 0.32925 (Simulation time: 0 hr 7 min 21 sec) 
Heartbeat CPU  3 instructions:   69000001 cycles:   71308851 heartbeat IPC: 0.33215 cumulative IPC: 0.35199 (Simulation time: 0 hr 7 min 21 sec) 
Heartbeat CPU  2 instructions:   68000000 cycles:   72605930 heartbeat IPC: 0.39876 cumulative IPC: 0.36472 (Simulation time: 0 hr 7 min 26 sec) 
Heartbeat CPU  1 instructions:   67000002 cycles:   73358146 heartbeat IPC: 0.38916 cumulative IPC: 0.34168 (Simulation time: 0 hr 7 min 28 sec) 
Heartbeat CPU  0 instructions:   67000000 cycles:   73808736 heartbeat IPC: 0.38144 cumulative IPC: 0.33198 (Simulation time: 0 hr 7 min 29 sec) 
Heartbeat CPU  3 instructions:   70000002 cycles:   73824671 heartbeat IPC: 0.39749 cumulative IPC: 0.35427 (Simulation time: 0 hr 7 min 29 sec) 
Heartbeat CPU  2 instructions:   69000000 cycles:   75406860 heartbeat IPC: 0.35702 cumulative IPC: 0.36431 (Simulation time: 0 hr 7 min 34 sec) 
Heartbeat CPU  1 instructions:   68000000 cycles:   75434898 heartbeat IPC: 0.48152 cumulative IPC: 0.34729 (Simulation time: 0 hr 7 min 34 sec) 
Heartbeat CPU  0 instructions:   68000000 cycles:   76327755 heartbeat IPC: 0.39698 cumulative IPC: 0.33508 (Simulation time: 0 hr 7 min 37 sec) 
Heartbeat CPU  3 instructions:   71000000 cycles:   76328265 heartbeat IPC: 0.39942 cumulative IPC: 0.35641 (Simulation time: 0 hr 7 min 37 sec) 
Heartbeat CPU  1 instructions:   69000000 cycles:   78408415 heartbeat IPC: 0.33630 cumulative IPC: 0.34669 (Simulation time: 0 hr 7 min 43 sec) 
Heartbeat CPU  3 instructions:   72000000 cycles:   78737517 heartbeat IPC: 0.41507 cumulative IPC: 0.35897 (Simulation time: 0 hr 7 min 44 sec) 
Heartbeat CPU  2 instructions:   70000001 cycles:   79181510 heartbeat IPC: 0.26493 cumulative IPC: 0.35756 (Simulation time: 0 hr 7 min 45 sec) 
Heartbeat CPU  0 instructions:   69000002 cycles:   79363729 heartbeat IPC: 0.32938 cumulative IPC: 0.33477 (Simulation time: 0 hr 7 min 46 sec) 
Heartbeat CPU  1 instructions:   70000003 cycles:   80970429 heartbeat IPC: 0.39032 cumulative IPC: 0.34864 (Simulation time: 0 hr 7 min 51 sec) 
Heartbeat CPU  3 instructions:   73000003 cycles:   81180343 heartbeat IPC: 0.40936 cumulative IPC: 0.36111 (Simulation time: 0 hr 7 min 52 sec) 
Heartbeat CPU  0 instructions:   70000000 cycles:   81584060 heartbeat IPC: 0.45038 cumulative IPC: 0.33920 (Simulation time: 0 hr 7 min 53 sec) 
Heartbeat CPU  2 instructions:   71000002 cycles:   82114540 heartbeat IPC: 0.34094 cumulative IPC: 0.35673 (Simulation time: 0 hr 7 min 55 sec) 
Heartbeat CPU  1 instructions:   71000000 cycles:   83170890 heartbeat IPC: 0.45445 cumulative IPC: 0.35255 (Simulation time: 0 hr 7 min 58 sec) 
Heartbeat CPU  0 instructions:   71000001 cycles:   84081215 heartbeat IPC: 0.40046 cumulative IPC: 0.34173 (Simulation time: 0 hr 8 min 1 sec) 
Heartbeat CPU  3 instructions:   74000000 cycles:   84402645 heartbeat IPC: 0.31034 cumulative IPC: 0.35842 (Simulation time: 0 hr 8 min 2 sec) 
Heartbeat CPU  2 instructions:   72000000 cycles:   84855612 heartbeat IPC: 0.36482 cumulative IPC: 0.35709 (Simulation time: 0 hr 8 min 3 sec) 
Heartbeat CPU  1 instructions:   72000000 cycles:   85685813 heartbeat IPC: 0.39763 cumulative IPC: 0.35438 (Simulation time: 0 hr 8 min 6 sec) 
Heartbeat CPU  0 instructions:   72000000 cycles:   85951901 heartbeat IPC: 0.53456 cumulative IPC: 0.34752 (Simulation time: 0 hr 8 min 7 sec) 
Heartbeat CPU  3 instructions:   75000002 cycles:   86801350 heartbeat IPC: 0.41689 cumulative IPC: 0.36064 (Simulation time: 0 hr 8 min 9 sec) 
Heartbeat CPU  2 instructions:   73000002 cycles:   87548850 heartbeat IPC: 0.37130 cumulative IPC: 0.35769 (Simulation time: 0 hr 8 min 11 sec) 
Heartbeat CPU  1 instructions:   73000001 cycles:   88178148 heartbeat IPC: 0.40123 cumulative IPC: 0.35618 (Simulation time: 0 hr 8 min 13 sec) 
Heartbeat CPU  0 instructions:   73000002 cycles:   89226384 heartbeat IPC: 0.30539 cumulative IPC: 0.34541 (Simulation time: 0 hr 8 min 16 sec) 
Heartbeat CPU  3 instructions:   76000000 cycles:   89498712 heartbeat IPC: 0.37073 cumulative IPC: 0.36105 (Simulation time: 0 hr 8 min 17 sec) 
Heartbeat CPU  2 instructions:   74000003 cycles:   90427998 heartbeat IPC: 0.34733 cumulative IPC: 0.35724 (Simulation time: 0 hr 8 min 19 sec) 
Heartbeat CPU  1 instructions:   74000003 cycles:   91056907 heartbeat IPC: 0.34737 cumulative IPC: 0.35581 (Simulation time: 0 hr 8 min 21 sec) 
Heartbeat CPU  0 instructions:   74000002 cycles:   91901836 heartbeat IPC: 0.37377 cumulative IPC: 0.34652 (Simulation time: 0 hr 8 min 24 sec) 
Heartbeat CPU  3 instructions:   77000000 cycles:   92750997 heartbeat IPC: 0.30748 cumulative IPC: 0.35853 (Simulation time: 0 hr 8 min 26 sec) 
Heartbeat CPU  2 instructions:   75000000 cycles:   93013290 heartbeat IPC: 0.38680 cumulative IPC: 0.35834 (Simulation time: 0 hr 8 min 27 sec) 
Heartbeat CPU  1 instructions:   75000002 cycles:   93494401 heartbeat IPC: 0.41026 cumulative IPC: 0.35771 (Simulation time: 0 hr 8 min 29 sec) 
Heartbeat CPU  0 instructions:   75000002 cycles:   94367997 heartbeat IPC: 0.40549 cumulative IPC: 0.34858 (Simulation time: 0 hr 8 min 31 sec) 
Heartbeat CPU  2 instructions:   76000000 cycles:   95595398 heartbeat IPC: 0.38728 cumulative IPC: 0.35938 (Simulation time: 0 hr 8 min 35 sec) 
Heartbeat CPU  3 instructions:   78000003 cycles:   95745178 heartbeat IPC: 0.33398 cumulative IPC: 0.35751 (Simulation time: 0 hr 8 min 35 sec) 
Heartbeat CPU  1 instructions:   76000000 cycles:   96323556 heartbeat IPC: 0.35346 cumulative IPC: 0.35754 (Simulation time: 0 hr 8 min 37 sec) 
Heartbeat CPU  0 instructions:   76000000 cycles:   96880277 heartbeat IPC: 0.39804 cumulative IPC: 0.35028 (Simulation time: 0 hr 8 min 39 sec) 
Heartbeat CPU  2 instructions:   77000001 cycles:   97773557 heartbeat IPC: 0.45910 cumulative IPC: 0.36231 (Simulation time: 0 hr 8 min 42 sec) 
Heartbeat CPU  3 instructions:   79000000 cycles:   98288310 heartbeat IPC: 0.39321 cumulative IPC: 0.35873 (Simulation time: 0 hr 8 min 44 sec) 
Heartbeat CPU  0 instructions:   77000001 cycles:   99274932 heartbeat IPC: 0.41760 cumulative IPC: 0.35241 (Simulation time: 0 hr 8 min 47 sec) 
Heartbeat CPU  1 instructions:   77000003 cycles:   99405718 heartbeat IPC: 0.32445 cumulative IPC: 0.35620 (Simulation time: 0 hr 8 min 47 sec) 
Heartbeat CPU  2 instructions:   78000003 cycles:   99693063 heartbeat IPC: 0.52097 cumulative IPC: 0.36631 (Simulation time: 0 hr 8 min 49 sec) 
Heartbeat CPU  3 instructions:   80000000 cycles:  100876438 heartbeat IPC: 0.38638 cumulative IPC: 0.35966 (Simulation time: 0 hr 8 min 53 sec) 
Heartbeat CPU  1 instructions:   78000001 cycles:  101113704 heartbeat IPC: 0.58548 cumulative IPC: 0.36125 (Simulation time: 0 hr 8 min 54 sec) 
Heartbeat CPU  0 instructions:   78000002 cycles:  101149097 heartbeat IPC: 0.53357 cumulative IPC: 0.35678 (Simulation time: 0 hr 8 min 54 sec) 
Heartbeat CPU  2 instructions:   79000003 cycles:  102542220 heartbeat IPC: 0.35098 cumulative IPC: 0.36576 (Simulation time: 0 hr 8 min 58 sec) 
Heartbeat CPU  0 instructions:   79000000 cycles:  102828359 heartbeat IPC: 0.59550 cumulative IPC: 0.36184 (Simulation time: 0 hr 8 min 59 sec) 
Heartbeat CPU  3 instructions:   81000002 cycles:  103379377 heartbeat IPC: 0.39953 cumulative IPC: 0.36091 (Simulation time: 0 hr 9 min 1 sec) 
Heartbeat CPU  1 instructions:   79000000 cycles:  103623095 heartbeat IPC: 0.39850 cumulative IPC: 0.36242 (Simulation time: 0 hr 9 min 2 sec) 
Heartbeat CPU  2 instructions:   80000000 cycles:  105012002 heartbeat IPC: 0.40489 cumulative IPC: 0.36694 (Simulation time: 0 hr 9 min 6 sec) 
Heartbeat CPU  0 instructions:   80000000 cycles:  105213171 heartbeat IPC: 0.41932 cumulative IPC: 0.36352 (Simulation time: 0 hr 9 min 7 sec) 
Heartbeat CPU  3 instructions:   82000003 cycles:  106375180 heartbeat IPC: 0.33380 cumulative IPC: 0.35993 (Simulation time: 0 hr 9 min 10 sec) 
Heartbeat CPU  1 instructions:   80000000 cycles:  106413646 heartbeat IPC: 0.35835 cumulative IPC: 0.36228 (Simulation time: 0 hr 9 min 10 sec) 
Heartbeat CPU  2 instructions:   81000003 cycles:  107628914 heartbeat IPC: 0.38213 cumulative IPC: 0.36742 (Simulation time: 0 hr 9 min 14 sec) 
Heartbeat CPU  0 instructions:   81000001 cycles:  108892680 heartbeat IPC: 0.27178 cumulative IPC: 0.35957 (Simulation time: 0 hr 9 min 18 sec) 
Heartbeat CPU  1 instructions:   81000000 cycles:  109028383 heartbeat IPC: 0.38245 cumulative IPC: 0.36290 (Simulation time: 0 hr 9 min 18 sec) 
Heartbeat CPU  3 instructions:   83000000 cycles:  109255369 heartbeat IPC: 0.34720 cumulative IPC: 0.35950 (Simulation time: 0 hr 9 min 19 sec) 
Heartbeat CPU  2 instructions:   82000000 cycles:  109756025 heartbeat IPC: 0.47012 cumulative IPC: 0.36995 (Simulation time: 0 hr 9 min 20 sec) 
Heartbeat CPU  1 instructions:   82000002 cycles:  111678892 heartbeat IPC: 0.37729 cumulative IPC: 0.36333 (Simulation time: 0 hr 9 min 26 sec) 
Heartbeat CPU  3 instructions:   84000000 cycles:  111847435 heartbeat IPC: 0.38579 cumulative IPC: 0.36027 (Simulation time: 0 hr 9 min 26 sec) 
Heartbeat CPU  0 instructions:   82000001 cycles:  112506205 heartbeat IPC: 0.27674 cumulative IPC: 0.35620 (Simulation time: 0 hr 9 min 28 sec) 
Heartbeat CPU  2 instructions:   83000003 cycles:  112698349 heartbeat IPC: 0.33987 cumulative IPC: 0.36896 (Simulation time: 0 hr 9 min 29 sec) 
Heartbeat CPU  0 instructions:   83000001 cycles:  114253730 heartbeat IPC: 0.57224 cumulative IPC: 0.36036 (Simulation time: 0 hr 9 min 34 sec) 
Heartbeat CPU  1 instructions:   83000003 cycles:  114254878 heartbeat IPC: 0.38820 cumulative IPC: 0.36404 (Simulation time: 0 hr 9 min 34 sec) 
Heartbeat CPU  2 instructions:   84000000 cycles:  114787451 heartbeat IPC: 0.47867 cumulative IPC: 0.37147 (Simulation time: 0 hr 9 min 36 sec) 
Heartbeat CPU  3 instructions:   85000001 cycles:  115021707 heartbeat IPC: 0.31503 cumulative IPC: 0.35870 (Simulation time: 0 hr 9 min 36 sec) 
Heartbeat CPU  0 instructions:   84000000 cycles:  116956906 heartbeat IPC: 0.36993 cumulative IPC: 0.36064 (Simulation time: 0 hr 9 min 42 sec) 
Heartbeat CPU  1 instructions:   84000000 cycles:  116996657 heartbeat IPC: 0.36473 cumulative IPC: 0.36406 (Simulation time: 0 hr 9 min 42 sec) 
Heartbeat CPU  2 instructions:   85000003 cycles:  117789589 heartbeat IPC: 0.33310 cumulative IPC: 0.37025 (Simulation time: 0 hr 9 min 45 sec) 
Heartbeat CPU  3 instructions:   86000001 cycles:  118347103 heartbeat IPC: 0.30072 cumulative IPC: 0.35666 (Simulation time: 0 hr 9 min 46 sec) 
Heartbeat CPU  0 instructions:   85000001 cycles:  118567665 heartbeat IPC: 0.62083 cumulative IPC: 0.36505 (Simulation time: 0 hr 9 min 47 sec) 
Heartbeat CPU  1 instructions:   85000002 cycles:  119966449 heartbeat IPC: 0.33672 cumulative IPC: 0.36321 (Simulation time: 0 hr 9 min 51 sec) 
Heartbeat CPU  0 instructions:   86000001 cycles:  120674931 heartbeat IPC: 0.47455 cumulative IPC: 0.36743 (Simulation time: 0 hr 9 min 53 sec) 
Heartbeat CPU  2 instructions:   86000003 cycles:  121090166 heartbeat IPC: 0.30298 cumulative IPC: 0.36797 (Simulation time: 0 hr 9 min 54 sec) 
Heartbeat CPU  3 instructions:   87000003 cycles:  121288181 heartbeat IPC: 0.34001 cumulative IPC: 0.35616 (Simulation time: 0 hr 9 min 55 sec) 
Heartbeat CPU  1 instructions:   86000000 cycles:  122809994 heartbeat IPC: 0.35167 cumulative IPC: 0.36288 (Simulation time: 0 hr 9 min 59 sec) 
Heartbeat CPU  2 instructions:   87000002 cycles:  123628857 heartbeat IPC: 0.39390 cumulative IPC: 0.36863 (Simulation time: 0 hr 10 min 2 sec) 
Heartbeat CPU  3 instructions:   88000000 cycles:  123917485 heartbeat IPC: 0.38033 cumulative IPC: 0.35680 (Simulation time: 0 hr 10 min 2 sec) 
Heartbeat CPU  0 instructions:   87000000 cycles:  123992053 heartbeat IPC: 0.30147 cumulative IPC: 0.36525 (Simulation time: 0 hr 10 min 3 sec) 
Heartbeat CPU  1 instructions:   87000002 cycles:  125298703 heartbeat IPC: 0.40182 cumulative IPC: 0.36384 (Simulation time: 0 hr 10 min 7 sec) 
Heartbeat CPU  2 instructions:   88000000 cycles:  126046533 heartbeat IPC: 0.41362 cumulative IPC: 0.36969 (Simulation time: 0 hr 10 min 9 sec) 
Heartbeat CPU  0 instructions:   88000000 cycles:  126443668 heartbeat IPC: 0.40789 cumulative IPC: 0.36627 (Simulation time: 0 hr 10 min 10 sec) 
Heartbeat CPU  3 instructions:   89000002 cycles:  126534481 heartbeat IPC: 0.38212 cumulative IPC: 0.35744 (Simulation time: 0 hr 10 min 11 sec) 
Heartbeat CPU  1 instructions:   88000000 cycles:  127856961 heartbeat IPC: 0.39089 cumulative IPC: 0.36450 (Simulation time: 0 hr 10 min 15 sec) 
Heartbeat CPU  0 instructions:   89000003 cycles:  128259702 heartbeat IPC: 0.55065 cumulative IPC: 0.36947 (Simulation time: 0 hr 10 min 16 sec) 
Heartbeat CPU  2 instructions:   89000003 cycles:  128766765 heartbeat IPC: 0.36762 cumulative IPC: 0.36964 (Simulation time: 0 hr 10 min 18 sec) 
Heartbeat CPU  3 instructions:   90000000 cycles:  129160361 heartbeat IPC: 0.38082 cumulative IPC: 0.35802 (Simulation time: 0 hr 10 min 19 sec) 
Heartbeat CPU  1 instructions:   89000001 cycles:  130388324 heartbeat IPC: 0.39504 cumulative IPC: 0.36522 (Simulation time: 0 hr 10 min 23 sec) 
Heartbeat CPU  0 instructions:   90000003 cycles:  130816989 heartbeat IPC: 0.39104 cumulative IPC: 0.36998 (Simulation time: 0 hr 10 min 25 sec) 
Heartbeat CPU  2 instructions:   90000000 cycles:  131348380 heartbeat IPC: 0.38735 cumulative IPC: 0.37006 (Simulation time: 0 hr 10 min 26 sec) 
Heartbeat CPU  3 instructions:   91000000 cycles:  132450423 heartbeat IPC: 0.30395 cumulative IPC: 0.35639 (Simulation time: 0 hr 10 min 29 sec) 
Heartbeat CPU  1 instructions:   90000002 cycles:  132960776 heartbeat IPC: 0.38873 cumulative IPC: 0.36578 (Simulation time: 0 hr 10 min 31 sec) 
Heartbeat CPU  0 instructions:   91000001 cycles:  133415683 heartbeat IPC: 0.38481 cumulative IPC: 0.37033 (Simulation time: 0 hr 10 min 32 sec) 
Heartbeat CPU  2 instructions:   91000002 cycles:  134018945 heartbeat IPC: 0.37445 cumulative IPC: 0.37017 (Simulation time: 0 hr 10 min 34 sec) 
Heartbeat CPU  0 instructions:   92000000 cycles:  135044503 heartbeat IPC: 0.61394 cumulative IPC: 0.37389 (Simulation time: 0 hr 10 min 38 sec) 
Heartbeat CPU  1 instructions:   91000001 cycles:  135559004 heartbeat IPC: 0.38488 cumulative IPC: 0.36622 (Simulation time: 0 hr 10 min 39 sec) 
Heartbeat CPU  2 instructions:   92000000 cycles:  135646714 heartbeat IPC: 0.61434 cumulative IPC: 0.37372 (Simulation time: 0 hr 10 min 39 sec) 
Heartbeat CPU  3 instructions:   92000000 cycles:  136775181 heartbeat IPC: 0.23123 cumulative IPC: 0.35160 (Simulation time: 0 hr 10 min 43 sec) 
Heartbeat CPU  0 instructions:   93000002 cycles:  137650324 heartbeat IPC: 0.38376 cumulative IPC: 0.37412 (Simulation time: 0 hr 10 min 45 sec) 
Heartbeat CPU  2 instructions:   93000000 cycles:  138270734 heartbeat IPC: 0.38109 cumulative IPC: 0.37389 (Simulation time: 0 hr 10 min 47 sec) 
Heartbeat CPU  1 instructions:   92000000 cycles:  138270802 heartbeat IPC: 0.36876 cumulative IPC: 0.36628 (Simulation time: 0 hr 10 min 47 sec) 
Heartbeat CPU  3 instructions:   93000003 cycles:  139388325 heartbeat IPC: 0.38268 cumulative IPC: 0.35231 (Simulation time: 0 hr 10 min 50 sec) 
Heartbeat CPU  0 instructions:   94000002 cycles:  140831666 heartbeat IPC: 0.31433 cumulative IPC: 0.37250 (Simulation time: 0 hr 10 min 54 sec) 
Heartbeat CPU  1 instructions:   93000002 cycles:  140863958 heartbeat IPC: 0.38563 cumulative IPC: 0.36671 (Simulation time: 0 hr 10 min 54 sec) 
Heartbeat CPU  2 instructions:   94000002 cycles:  141024816 heartbeat IPC: 0.36310 cumulative IPC: 0.37363 (Simulation time: 0 hr 10 min 55 sec) 
Heartbeat CPU  3 instructions:   94000001 cycles:  142193299 heartbeat IPC: 0.35651 cumulative IPC: 0.35241 (Simulation time: 0 hr 10 min 58 sec) 
Heartbeat CPU  0 instructions:   95000002 cycles:  143543594 heartbeat IPC: 0.36874 cumulative IPC: 0.37241 (Simulation time: 0 hr 11 min 2 sec) 
Heartbeat CPU  1 instructions:   94000000 cycles:  143564615 heartbeat IPC: 0.37028 cumulative IPC: 0.36679 (Simulation time: 0 hr 11 min 2 sec) 
Heartbeat CPU  2 instructions:   95000002 cycles:  143957332 heartbeat IPC: 0.34100 cumulative IPC: 0.37284 (Simulation time: 0 hr 11 min 3 sec) 
Heartbeat CPU  3 instructions:   95000000 cycles:  145188833 heartbeat IPC: 0.33383 cumulative IPC: 0.35195 (Simulation time: 0 hr 11 min 7 sec) 
Heartbeat CPU  1 instructions:   95000002 cycles:  145850605 heartbeat IPC: 0.43745 cumulative IPC: 0.36811 (Simulation time: 0 hr 11 min 9 sec) 
Heartbeat CPU  2 instructions:   96000000 cycles:  146471303 heartbeat IPC: 0.39778 cumulative IPC: 0.37335 (Simulation time: 0 hr 11 min 11 sec) 
Heartbeat CPU  0 instructions:   96000000 cycles:  146568189 heartbeat IPC: 0.33062 cumulative IPC: 0.37138 (Simulation time: 0 hr 11 min 11 sec) 
Heartbeat CPU  3 instructions:   96000000 cycles:  147848479 heartbeat IPC: 0.37599 cumulative IPC: 0.35246 (Simulation time: 0 hr 11 min 15 sec) 
Heartbeat CPU  1 instructions:   96000000 cycles:  148247915 heartbeat IPC: 0.41713 cumulative IPC: 0.36905 (Simulation time: 0 hr 11 min 16 sec) 
Heartbeat CPU  2 instructions:   97000000 cycles:  148991138 heartbeat IPC: 0.39685 cumulative IPC: 0.37382 (Simulation time: 0 hr 11 min 18 sec) 
Heartbeat CPU  0 instructions:   97000000 cycles:  149564082 heartbeat IPC: 0.33379 cumulative IPC: 0.37049 (Simulation time: 0 hr 11 min 20 sec) 
Heartbeat CPU  3 instructions:   97000001 cycles:  150424186 heartbeat IPC: 0.38824 cumulative IPC: 0.35319 (Simulation time: 0 hr 11 min 22 sec) 
Heartbeat CPU  1 instructions:   97000001 cycles:  151267700 heartbeat IPC: 0.33115 cumulative IPC: 0.36816 (Simulation time: 0 hr 11 min 24 sec) 
Heartbeat CPU  2 instructions:   98000003 cycles:  151528941 heartbeat IPC: 0.39404 cumulative IPC: 0.37422 (Simulation time: 0 hr 11 min 25 sec) 
Heartbeat CPU  0 instructions:   98000000 cycles:  152323072 heartbeat IPC: 0.36245 cumulative IPC: 0.37032 (Simulation time: 0 hr 11 min 27 sec) 
Heartbeat CPU  3 instructions:   98000002 cycles:  152993334 heartbeat IPC: 0.38923 cumulative IPC: 0.35390 (Simulation time: 0 hr 11 min 29 sec) 
Heartbeat CPU  1 instructions:   98000001 cycles:  153954808 heartbeat IPC: 0.37215 cumulative IPC: 0.36824 (Simulation time: 0 hr 11 min 32 sec) 
Heartbeat CPU  2 instructions:   99000002 cycles:  154055028 heartbeat IPC: 0.39587 cumulative IPC: 0.37464 (Simulation time: 0 hr 11 min 32 sec) 
Heartbeat CPU  0 instructions:   99000003 cycles:  154607292 heartbeat IPC: 0.43779 cumulative IPC: 0.37149 (Simulation time: 0 hr 11 min 34 sec) 
Heartbeat CPU  3 instructions:   99000002 cycles:  156327808 heartbeat IPC: 0.29990 cumulative IPC: 0.35255 (Simulation time: 0 hr 11 min 40 sec) 
Heartbeat CPU  1 instructions:   99000002 cycles:  156541104 heartbeat IPC: 0.38665 cumulative IPC: 0.36860 (Simulation time: 0 hr 11 min 40 sec) 
*** Reached end of trace for Core: 0 Repeating trace: /data3/CASSANDRA/traces/cassandra_phase3_core0.trace.xz
Heartbeat CPU  0 instructions:  100000000 cycles:  156724243 heartbeat IPC: 0.47238 cumulative IPC: 0.37310 (Simulation time: 0 hr 11 min 41 sec) 
*** Reached end of trace for Core: 2 Repeating trace: /data3/CASSANDRA/traces/cassandra_phase3_core2.trace.xz
Heartbeat CPU  2 instructions:  100000000 cycles:  156910787 heartbeat IPC: 0.35017 cumulative IPC: 0.37412 (Simulation time: 0 hr 11 min 41 sec) 
Heartbeat CPU  0 instructions:  101000002 cycles:  158374006 heartbeat IPC: 0.60615 cumulative IPC: 0.37595 (Simulation time: 0 hr 11 min 46 sec) 
*** Reached end of trace for Core: 3 Repeating trace: /data3/CASSANDRA/traces/cassandra_phase3_core3.trace.xz
Heartbeat CPU  3 instructions:  100000000 cycles:  158903047 heartbeat IPC: 0.38831 cumulative IPC: 0.35323 (Simulation time: 0 hr 11 min 48 sec) 
*** Reached end of trace for Core: 1 Repeating trace: /data3/CASSANDRA/traces/cassandra_phase3_core1.trace.xz
Heartbeat CPU  1 instructions:  100000000 cycles:  159112150 heartbeat IPC: 0.38895 cumulative IPC: 0.36898 (Simulation time: 0 hr 11 min 49 sec) 
Heartbeat CPU  2 instructions:  101000002 cycles:  159363131 heartbeat IPC: 0.40777 cumulative IPC: 0.37472 (Simulation time: 0 hr 11 min 49 sec) 
Heartbeat CPU  0 instructions:  102000001 cycles:  160927927 heartbeat IPC: 0.39155 cumulative IPC: 0.37624 (Simulation time: 0 hr 11 min 53 sec) 
Heartbeat CPU  2 instructions:  102000003 cycles:  161964116 heartbeat IPC: 0.38447 cumulative IPC: 0.37491 (Simulation time: 0 hr 11 min 56 sec) 
Heartbeat CPU  3 instructions:  101000000 cycles:  162142204 heartbeat IPC: 0.30872 cumulative IPC: 0.35219 (Simulation time: 0 hr 11 min 57 sec) 
Heartbeat CPU  1 instructions:  101000000 cycles:  162601467 heartbeat IPC: 0.28659 cumulative IPC: 0.36691 (Simulation time: 0 hr 11 min 58 sec) 
Heartbeat CPU  0 instructions:  103000001 cycles:  163944567 heartbeat IPC: 0.33149 cumulative IPC: 0.37528 (Simulation time: 0 hr 12 min 1 sec) 
Heartbeat CPU  2 instructions:  103000001 cycles:  164568836 heartbeat IPC: 0.38392 cumulative IPC: 0.37507 (Simulation time: 0 hr 12 min 3 sec) 
Heartbeat CPU  3 instructions:  102000001 cycles:  164822272 heartbeat IPC: 0.37313 cumulative IPC: 0.35259 (Simulation time: 0 hr 12 min 4 sec) 
Heartbeat CPU  0 instructions:  104000000 cycles:  166470042 heartbeat IPC: 0.39596 cumulative IPC: 0.37564 (Simulation time: 0 hr 12 min 8 sec) 
Heartbeat CPU  2 instructions:  104000000 cycles:  167164221 heartbeat IPC: 0.38530 cumulative IPC: 0.37526 (Simulation time: 0 hr 12 min 10 sec) 
Heartbeat CPU  1 instructions:  102000003 cycles:  167374924 heartbeat IPC: 0.20949 cumulative IPC: 0.36169 (Simulation time: 0 hr 12 min 11 sec) 
Heartbeat CPU  3 instructions:  103000003 cycles:  167493286 heartbeat IPC: 0.37439 cumulative IPC: 0.35299 (Simulation time: 0 hr 12 min 11 sec) 
Heartbeat CPU  0 instructions:  105000000 cycles:  169043599 heartbeat IPC: 0.38857 cumulative IPC: 0.37587 (Simulation time: 0 hr 12 min 15 sec) 
Heartbeat CPU  2 instructions:  105000002 cycles:  169763948 heartbeat IPC: 0.38466 cumulative IPC: 0.37543 (Simulation time: 0 hr 12 min 17 sec) 
Heartbeat CPU  3 instructions:  104000000 cycles:  170166129 heartbeat IPC: 0.37413 cumulative IPC: 0.35338 (Simulation time: 0 hr 12 min 18 sec) 
Heartbeat CPU  1 instructions:  103000001 cycles:  170843156 heartbeat IPC: 0.28833 cumulative IPC: 0.35996 (Simulation time: 0 hr 12 min 20 sec) 
Heartbeat CPU  2 instructions:  106000001 cycles:  171944280 heartbeat IPC: 0.45865 cumulative IPC: 0.37665 (Simulation time: 0 hr 12 min 23 sec) 
Heartbeat CPU  0 instructions:  106000003 cycles:  172593755 heartbeat IPC: 0.28168 cumulative IPC: 0.37363 (Simulation time: 0 hr 12 min 25 sec) 
Heartbeat CPU  3 instructions:  105000000 cycles:  173006772 heartbeat IPC: 0.35203 cumulative IPC: 0.35335 (Simulation time: 0 hr 12 min 27 sec) 
Heartbeat CPU  1 instructions:  104000000 cycles:  173286411 heartbeat IPC: 0.40929 cumulative IPC: 0.36077 (Simulation time: 0 hr 12 min 27 sec) 
Heartbeat CPU  0 instructions:  107000003 cycles:  175177494 heartbeat IPC: 0.38704 cumulative IPC: 0.37386 (Simulation time: 0 hr 12 min 33 sec) 
Heartbeat CPU  2 instructions:  107000002 cycles:  175530737 heartbeat IPC: 0.27883 cumulative IPC: 0.37434 (Simulation time: 0 hr 12 min 34 sec) 
Heartbeat CPU  1 instructions:  105000003 cycles:  175758535 heartbeat IPC: 0.40451 cumulative IPC: 0.36148 (Simulation time: 0 hr 12 min 35 sec) 
Heartbeat CPU  3 instructions:  106000002 cycles:  176000539 heartbeat IPC: 0.33403 cumulative IPC: 0.35297 (Simulation time: 0 hr 12 min 36 sec) 
Heartbeat CPU  0 instructions:  108000000 cycles:  176800849 heartbeat IPC: 0.61601 cumulative IPC: 0.37642 (Simulation time: 0 hr 12 min 38 sec) 
Heartbeat CPU  2 instructions:  108000000 cycles:  178154906 heartbeat IPC: 0.38107 cumulative IPC: 0.37445 (Simulation time: 0 hr 12 min 42 sec) 
Heartbeat CPU  1 instructions:  106000000 cycles:  178161540 heartbeat IPC: 0.41614 cumulative IPC: 0.36233 (Simulation time: 0 hr 12 min 43 sec) 
Heartbeat CPU  3 instructions:  107000002 cycles:  178645491 heartbeat IPC: 0.37808 cumulative IPC: 0.35340 (Simulation time: 0 hr 12 min 44 sec) 
Heartbeat CPU  0 instructions:  109000001 cycles:  179461772 heartbeat IPC: 0.37581 cumulative IPC: 0.37641 (Simulation time: 0 hr 12 min 46 sec) 
Heartbeat CPU  2 instructions:  109000000 cycles:  180628613 heartbeat IPC: 0.40425 cumulative IPC: 0.37492 (Simulation time: 0 hr 12 min 50 sec) 
Heartbeat CPU  1 instructions:  107000001 cycles:  180670768 heartbeat IPC: 0.39853 cumulative IPC: 0.36290 (Simulation time: 0 hr 12 min 50 sec) 
Heartbeat CPU  3 instructions:  108000000 cycles:  181296485 heartbeat IPC: 0.37722 cumulative IPC: 0.35380 (Simulation time: 0 hr 12 min 52 sec) 
Heartbeat CPU  0 instructions:  110000001 cycles:  182441674 heartbeat IPC: 0.33558 cumulative IPC: 0.37565 (Simulation time: 0 hr 12 min 55 sec) 
Heartbeat CPU  2 instructions:  110000001 cycles:  183114291 heartbeat IPC: 0.40231 cumulative IPC: 0.37535 (Simulation time: 0 hr 12 min 57 sec) 
Heartbeat CPU  1 instructions:  108000000 cycles:  183212885 heartbeat IPC: 0.39337 cumulative IPC: 0.36339 (Simulation time: 0 hr 12 min 57 sec) 
Heartbeat CPU  3 instructions:  109000001 cycles:  184242748 heartbeat IPC: 0.33941 cumulative IPC: 0.35354 (Simulation time: 0 hr 13 min 1 sec) 
Heartbeat CPU  2 instructions:  111000001 cycles:  184733756 heartbeat IPC: 0.61749 cumulative IPC: 0.37778 (Simulation time: 0 hr 13 min 2 sec) 
Heartbeat CPU  1 instructions:  109000001 cycles:  185301209 heartbeat IPC: 0.47885 cumulative IPC: 0.36488 (Simulation time: 0 hr 13 min 4 sec) 
Heartbeat CPU  0 instructions:  111000001 cycles:  185537128 heartbeat IPC: 0.32305 cumulative IPC: 0.37464 (Simulation time: 0 hr 13 min 5 sec) 
Heartbeat CPU  3 instructions:  110000003 cycles:  186907584 heartbeat IPC: 0.37526 cumulative IPC: 0.35389 (Simulation time: 0 hr 13 min 9 sec) 
Heartbeat CPU  0 instructions:  112000000 cycles:  187810510 heartbeat IPC: 0.43987 cumulative IPC: 0.37554 (Simulation time: 0 hr 13 min 12 sec) 
Heartbeat CPU  1 instructions:  110000002 cycles:  187906445 heartbeat IPC: 0.38384 cumulative IPC: 0.36518 (Simulation time: 0 hr 13 min 12 sec) 
Heartbeat CPU  2 instructions:  112000000 cycles:  188061752 heartbeat IPC: 0.30048 cumulative IPC: 0.37622 (Simulation time: 0 hr 13 min 12 sec) 
Heartbeat CPU  3 instructions:  111000000 cycles:  189594569 heartbeat IPC: 0.37216 cumulative IPC: 0.35419 (Simulation time: 0 hr 13 min 17 sec) 
Heartbeat CPU  0 instructions:  113000002 cycles:  189680726 heartbeat IPC: 0.53470 cumulative IPC: 0.37734 (Simulation time: 0 hr 13 min 17 sec) 
Heartbeat CPU  2 instructions:  113000003 cycles:  190898977 heartbeat IPC: 0.35246 cumulative IPC: 0.37582 (Simulation time: 0 hr 13 min 21 sec) 
Heartbeat CPU  1 instructions:  111000003 cycles:  191053439 heartbeat IPC: 0.31776 cumulative IPC: 0.36429 (Simulation time: 0 hr 13 min 21 sec) 
Heartbeat CPU  3 instructions:  112000000 cycles:  192717734 heartbeat IPC: 0.32019 cumulative IPC: 0.35356 (Simulation time: 0 hr 13 min 26 sec) 
Heartbeat CPU  0 instructions:  114000000 cycles:  192753231 heartbeat IPC: 0.32547 cumulative IPC: 0.37639 (Simulation time: 0 hr 13 min 26 sec) 
Heartbeat CPU  2 instructions:  114000001 cycles:  193177586 heartbeat IPC: 0.43886 cumulative IPC: 0.37666 (Simulation time: 0 hr 13 min 27 sec) 
Heartbeat CPU  1 instructions:  112000000 cycles:  193402191 heartbeat IPC: 0.42576 cumulative IPC: 0.36514 (Simulation time: 0 hr 13 min 28 sec) 
Heartbeat CPU  2 instructions:  115000001 cycles:  195745480 heartbeat IPC: 0.38942 cumulative IPC: 0.37685 (Simulation time: 0 hr 13 min 35 sec) 
Heartbeat CPU  3 instructions:  113000000 cycles:  195978323 heartbeat IPC: 0.30669 cumulative IPC: 0.35267 (Simulation time: 0 hr 13 min 35 sec) 
Heartbeat CPU  0 instructions:  115000002 cycles:  196271931 heartbeat IPC: 0.28420 cumulative IPC: 0.37452 (Simulation time: 0 hr 13 min 36 sec) 
Heartbeat CPU  1 instructions:  113000003 cycles:  197817731 heartbeat IPC: 0.22647 cumulative IPC: 0.36163 (Simulation time: 0 hr 13 min 40 sec) 
Heartbeat CPU  2 instructions:  116000000 cycles:  197935810 heartbeat IPC: 0.45655 cumulative IPC: 0.37786 (Simulation time: 0 hr 13 min 40 sec) 
Heartbeat CPU  0 instructions:  116000000 cycles:  198688739 heartbeat IPC: 0.41377 cumulative IPC: 0.37506 (Simulation time: 0 hr 13 min 43 sec) 
Heartbeat CPU  3 instructions:  114000001 cycles:  199164625 heartbeat IPC: 0.31384 cumulative IPC: 0.35197 (Simulation time: 0 hr 13 min 44 sec) 
Heartbeat CPU  1 instructions:  114000002 cycles:  199546311 heartbeat IPC: 0.57851 cumulative IPC: 0.36376 (Simulation time: 0 hr 13 min 46 sec) 
Heartbeat CPU  2 instructions:  117000002 cycles:  200840990 heartbeat IPC: 0.34421 cumulative IPC: 0.37730 (Simulation time: 0 hr 13 min 49 sec) 
Heartbeat CPU  0 instructions:  117000001 cycles:  201907905 heartbeat IPC: 0.31064 cumulative IPC: 0.37389 (Simulation time: 0 hr 13 min 52 sec) 
Heartbeat CPU  3 instructions:  115000001 cycles:  201934456 heartbeat IPC: 0.36103 cumulative IPC: 0.35211 (Simulation time: 0 hr 13 min 52 sec) 
Heartbeat CPU  1 instructions:  115000003 cycles:  202345653 heartbeat IPC: 0.35723 cumulative IPC: 0.36365 (Simulation time: 0 hr 13 min 54 sec) 
Heartbeat CPU  2 instructions:  118000000 cycles:  203766831 heartbeat IPC: 0.34178 cumulative IPC: 0.37673 (Simulation time: 0 hr 13 min 57 sec) 
Heartbeat CPU  0 instructions:  118000000 cycles:  204812124 heartbeat IPC: 0.34433 cumulative IPC: 0.37342 (Simulation time: 0 hr 14 min 0 sec) 
Heartbeat CPU  3 instructions:  116000000 cycles:  205067817 heartbeat IPC: 0.31915 cumulative IPC: 0.35154 (Simulation time: 0 hr 14 min 1 sec) 
Heartbeat CPU  1 instructions:  116000000 cycles:  205363933 heartbeat IPC: 0.33131 cumulative IPC: 0.36312 (Simulation time: 0 hr 14 min 2 sec) 
Heartbeat CPU  2 instructions:  119000003 cycles:  206412745 heartbeat IPC: 0.37794 cumulative IPC: 0.37674 (Simulation time: 0 hr 14 min 5 sec) 
Heartbeat CPU  0 instructions:  119000000 cycles:  207424864 heartbeat IPC: 0.38274 cumulative IPC: 0.37355 (Simulation time: 0 hr 14 min 8 sec) 
Heartbeat CPU  1 instructions:  117000000 cycles:  207725581 heartbeat IPC: 0.42343 cumulative IPC: 0.36389 (Simulation time: 0 hr 14 min 9 sec) 
Heartbeat CPU  3 instructions:  117000002 cycles:  207938962 heartbeat IPC: 0.34829 cumulative IPC: 0.35149 (Simulation time: 0 hr 14 min 9 sec) 
Heartbeat CPU  2 instructions:  120000000 cycles:  209043013 heartbeat IPC: 0.38019 cumulative IPC: 0.37679 (Simulation time: 0 hr 14 min 13 sec) 
Heartbeat CPU  0 instructions:  120000000 cycles:  210453710 heartbeat IPC: 0.33016 cumulative IPC: 0.37285 (Simulation time: 0 hr 14 min 16 sec) 
Heartbeat CPU  3 instructions:  118000002 cycles:  210477537 heartbeat IPC: 0.39392 cumulative IPC: 0.35206 (Simulation time: 0 hr 14 min 16 sec) 
Heartbeat CPU  1 instructions:  118000000 cycles:  210827719 heartbeat IPC: 0.32236 cumulative IPC: 0.36320 (Simulation time: 0 hr 14 min 17 sec) 
Heartbeat CPU  0 instructions:  121000001 cycles:  212765196 heartbeat IPC: 0.43262 cumulative IPC: 0.37358 (Simulation time: 0 hr 14 min 23 sec) 
Heartbeat CPU  2 instructions:  121000000 cycles:  212905847 heartbeat IPC: 0.25888 cumulative IPC: 0.37439 (Simulation time: 0 hr 14 min 24 sec) 
Heartbeat CPU  3 instructions:  119000001 cycles:  213015410 heartbeat IPC: 0.39403 cumulative IPC: 0.35263 (Simulation time: 0 hr 14 min 24 sec) 
Heartbeat CPU  1 instructions:  119000002 cycles:  213557123 heartbeat IPC: 0.36638 cumulative IPC: 0.36325 (Simulation time: 0 hr 14 min 26 sec) 
Heartbeat CPU  0 instructions:  122000003 cycles:  214166005 heartbeat IPC: 0.71387 cumulative IPC: 0.37608 (Simulation time: 0 hr 14 min 27 sec) 
Heartbeat CPU  3 instructions:  120000000 cycles:  215543225 heartbeat IPC: 0.39560 cumulative IPC: 0.35319 (Simulation time: 0 hr 14 min 31 sec) 
Heartbeat CPU  1 instructions:  120000000 cycles:  216337041 heartbeat IPC: 0.35972 cumulative IPC: 0.36320 (Simulation time: 0 hr 14 min 34 sec) 
Heartbeat CPU  2 instructions:  122000003 cycles:  216372347 heartbeat IPC: 0.28848 cumulative IPC: 0.37284 (Simulation time: 0 hr 14 min 34 sec) 
Heartbeat CPU  0 instructions:  123000001 cycles:  216685205 heartbeat IPC: 0.39695 cumulative IPC: 0.37635 (Simulation time: 0 hr 14 min 35 sec) 
Heartbeat CPU  3 instructions:  121000001 cycles:  218753261 heartbeat IPC: 0.31152 cumulative IPC: 0.35251 (Simulation time: 0 hr 14 min 41 sec) 
Heartbeat CPU  2 instructions:  123000000 cycles:  219398074 heartbeat IPC: 0.33050 cumulative IPC: 0.37219 (Simulation time: 0 hr 14 min 42 sec) 
Heartbeat CPU  1 instructions:  121000001 cycles:  219593003 heartbeat IPC: 0.30713 cumulative IPC: 0.36227 (Simulation time: 0 hr 14 min 43 sec) 
Heartbeat CPU  0 instructions:  124000000 cycles:  219736898 heartbeat IPC: 0.32769 cumulative IPC: 0.37560 (Simulation time: 0 hr 14 min 43 sec) 
Heartbeat CPU  1 instructions:  122000002 cycles:  222291056 heartbeat IPC: 0.37064 cumulative IPC: 0.36238 (Simulation time: 0 hr 14 min 49 sec) 
Heartbeat CPU  3 instructions:  122000001 cycles:  222536416 heartbeat IPC: 0.26433 cumulative IPC: 0.35083 (Simulation time: 0 hr 14 min 49 sec) 
Heartbeat CPU  0 instructions:  125000002 cycles:  223924560 heartbeat IPC: 0.23880 cumulative IPC: 0.37274 (Simulation time: 0 hr 14 min 53 sec) 
Heartbeat CPU  1 instructions:  123000003 cycles:  225121170 heartbeat IPC: 0.35334 cumulative IPC: 0.36225 (Simulation time: 0 hr 14 min 56 sec) 
Heartbeat CPU  3 instructions:  123000003 cycles:  225132993 heartbeat IPC: 0.38512 cumulative IPC: 0.35127 (Simulation time: 0 hr 14 min 56 sec) 
Heartbeat CPU  2 instructions:  124000000 cycles:  225456214 heartbeat IPC: 0.16507 cumulative IPC: 0.36597 (Simulation time: 0 hr 14 min 57 sec) 
Heartbeat CPU  0 instructions:  126000003 cycles:  226631293 heartbeat IPC: 0.36945 cumulative IPC: 0.37269 (Simulation time: 0 hr 15 min 1 sec) 
Heartbeat CPU  3 instructions:  124000000 cycles:  227815928 heartbeat IPC: 0.37273 cumulative IPC: 0.35155 (Simulation time: 0 hr 15 min 4 sec) 
Heartbeat CPU  2 instructions:  125000002 cycles:  228116914 heartbeat IPC: 0.37584 cumulative IPC: 0.36610 (Simulation time: 0 hr 15 min 5 sec) 
Heartbeat CPU  1 instructions:  124000000 cycles:  228154983 heartbeat IPC: 0.32962 cumulative IPC: 0.36177 (Simulation time: 0 hr 15 min 5 sec) 
Heartbeat CPU  0 instructions:  127000002 cycles:  228725981 heartbeat IPC: 0.47740 cumulative IPC: 0.37376 (Simulation time: 0 hr 15 min 7 sec) 
Heartbeat CPU  3 instructions:  125000002 cycles:  230696820 heartbeat IPC: 0.34712 cumulative IPC: 0.35149 (Simulation time: 0 hr 15 min 13 sec) 
Heartbeat CPU  1 instructions:  125000002 cycles:  231271192 heartbeat IPC: 0.32090 cumulative IPC: 0.36116 (Simulation time: 0 hr 15 min 14 sec) 
Heartbeat CPU  0 instructions:  128000000 cycles:  231940786 heartbeat IPC: 0.31106 cumulative IPC: 0.37279 (Simulation time: 0 hr 15 min 15 sec) 
Heartbeat CPU  2 instructions:  126000001 cycles:  232029330 heartbeat IPC: 0.25560 cumulative IPC: 0.36403 (Simulation time: 0 hr 15 min 16 sec) 
Heartbeat CPU  3 instructions:  126000001 cycles:  235196336 heartbeat IPC: 0.22225 cumulative IPC: 0.34874 (Simulation time: 0 hr 15 min 22 sec) 
Heartbeat CPU  1 instructions:  126000000 cycles:  235329593 heartbeat IPC: 0.24640 cumulative IPC: 0.35896 (Simulation time: 0 hr 15 min 22 sec) 
Heartbeat CPU  0 instructions:  129000000 cycles:  236933391 heartbeat IPC: 0.20030 cumulative IPC: 0.36876 (Simulation time: 0 hr 15 min 27 sec) 
Heartbeat CPU  3 instructions:  127000001 cycles:  237500295 heartbeat IPC: 0.43404 cumulative IPC: 0.34966 (Simulation time: 0 hr 15 min 30 sec) 
Heartbeat CPU  2 instructions:  127000001 cycles:  237503906 heartbeat IPC: 0.18266 cumulative IPC: 0.35938 (Simulation time: 0 hr 15 min 30 sec) 
Heartbeat CPU  1 instructions:  127000002 cycles:  237626638 heartbeat IPC: 0.43534 cumulative IPC: 0.35978 (Simulation time: 0 hr 15 min 31 sec) 
Heartbeat CPU  3 instructions:  128000000 cycles:  240587703 heartbeat IPC: 0.32390 cumulative IPC: 0.34930 (Simulation time: 0 hr 15 min 39 sec) 
Heartbeat CPU  1 instructions:  128000000 cycles:  240861340 heartbeat IPC: 0.30915 cumulative IPC: 0.35902 (Simulation time: 0 hr 15 min 39 sec) 
Heartbeat CPU  0 instructions:  130000000 cycles:  241521756 heartbeat IPC: 0.21794 cumulative IPC: 0.36558 (Simulation time: 0 hr 15 min 40 sec) 
Heartbeat CPU  2 instructions:  128000000 cycles:  242140281 heartbeat IPC: 0.21569 cumulative IPC: 0.35634 (Simulation time: 0 hr 15 min 42 sec) 
Heartbeat CPU  0 instructions:  131000002 cycles:  244811405 heartbeat IPC: 0.30398 cumulative IPC: 0.36467 (Simulation time: 0 hr 15 min 48 sec) 
Heartbeat CPU  3 instructions:  129000003 cycles:  245762440 heartbeat IPC: 0.19325 cumulative IPC: 0.34566 (Simulation time: 0 hr 15 min 50 sec) 
Heartbeat CPU  1 instructions:  129000000 cycles:  246097467 heartbeat IPC: 0.19098 cumulative IPC: 0.35507 (Simulation time: 0 hr 15 min 50 sec) 
[...]
Core_3_L2C_prefetch_hit 162016
Core_3_L2C_prefetch_miss 82103
Core_3_L2C_writebacks 417271
Core_3_L2C_writeback_hit 415808
Core_3_L2C_writeback_miss 1463
Core_3_L2C_prefetch_requested 2794307
Core_3_L2C_prefetch_dropped 4
Core_3_L2C_prefetch_issued 2794303
Core_3_L2C_prefetch_filled 120637
Core_3_L2C_prefetch_useful 105244
Core_3_L2C_prefetch_useless 15353
Core_3_L2C_prefetch_late 50904
Core_3_L2C_average_miss_latency 157.37119

Core_3_L2C_rq_access 1614480
Core_3_L2C_rq_forward 0
Core_3_L2C_rq_merged 0
Core_3_L2C_rq_to_cache 1614469
Core_3_L2C_rq_full 0

Core_3_L2C_wq_access 418918
Core_3_L2C_wq_forward 11
Core_3_L2C_wq_merged 0
Core_3_L2C_wq_to_cache 418918
Core_3_L2C_wq_full 0

Core_3_L2C_pq_access 2794303
Core_3_L2C_pq_forward 0
Core_3_L2C_pq_merged 370903
Core_3_L2C_pq_to_cache 2423400
Core_3_L2C_pq_full 0

Core_3_L2C_acc_epochs 205271
Core_3_L2C_acc_level_0 117735
Core_3_L2C_acc_level_1 15888
Core_3_L2C_acc_level_2 14509
Core_3_L2C_acc_level_3 10125
Core_3_L2C_acc_level_4 4846
Core_3_L2C_acc_level_5 14157
Core_3_L2C_acc_level_6 8168
Core_3_L2C_acc_level_7 5511
Core_3_L2C_acc_level_8 4308
Core_3_L2C_acc_level_9 10024

Core_3_LLC_total_access 2889173
Core_3_LLC_total_hit 1497945
Core_3_LLC_total_miss 1391228
Core_3_LLC_loads 1071347
Core_3_LLC_load_hit 525890
Core_3_LLC_load_miss 545457
Core_3_LLC_RFOs 148250
Core_3_LLC_RFO_hit 28696
Core_3_LLC_RFO_miss 119554
Core_3_LLC_prefetches 1286520
Core_3_LLC_prefetch_hit 619567
Core_3_LLC_prefetch_miss 666953
Core_3_LLC_writebacks 383056
Core_3_LLC_writeback_hit 323792
Core_3_LLC_writeback_miss 59264
Core_3_LLC_prefetch_requested 0
Core_3_LLC_prefetch_dropped 0
Core_3_LLC_prefetch_issued 0
Core_3_LLC_prefetch_filled 3704260
Core_3_LLC_prefetch_useful 1436633
Core_3_LLC_prefetch_useless 2234457
Core_3_LLC_prefetch_late 127122
Core_3_LLC_average_miss_latency 790.94376

Core_3_LLC_rq_access 5147435
Core_3_LLC_rq_forward 0
Core_3_LLC_rq_merged 0
Core_3_LLC_rq_to_cache 5147425
Core_3_LLC_rq_full 0

Core_3_LLC_wq_access 1522353
Core_3_LLC_wq_forward 11
Core_3_LLC_wq_merged 0
Core_3_LLC_wq_to_cache 1522353
Core_3_LLC_wq_full 0

Core_3_LLC_pq_access 10807200
Core_3_LLC_pq_forward 0
Core_3_LLC_pq_merged 556861
Core_3_LLC_pq_to_cache 10250337
Core_3_LLC_pq_full 0

Core_3_LLC_acc_epochs 477907
Core_3_LLC_acc_level_0 46439
Core_3_LLC_acc_level_1 44169
Core_3_LLC_acc_level_2 85732
Core_3_LLC_acc_level_3 92552
Core_3_LLC_acc_level_4 73424
Core_3_LLC_acc_level_5 53958
Core_3_LLC_acc_level_6 32363
Core_3_LLC_acc_level_7 18022
Core_3_LLC_acc_level_8 9749
Core_3_LLC_acc_level_9 21499

Core_3_major_page_fault 0
Core_3_minor_page_fault 47375

spp.pref.total 4600382
spp.pref.at_L2 428771
spp.pref.at_LLC 4171611

spp.depth.max 10
spp.depth.min 0
spp.depth.avg 2

spp.breadth.max 2
spp.breadth.min 0
spp.breadth.avg 0

delta_1 4509288
delta_2 115256
delta_3 101631
delta_-1 15102
delta_-2 8118
delta_-3 4631
delta_5 2807
delta_-12 1660
delta_34 1619
delta_6 1445
delta_7 1427
delta_-4 1267
delta_-5 1238
delta_4 1230
delta_-21 742
delta_8 621
delta_36 595
delta_18 557
delta_-22 552
delta_-9 496
delta_11 385
delta_-10 367
delta_-13 335
delta_20 316
delta_19 306
delta_-6 298
delta_-14 292
delta_-8 285
delta_9 253
delta_37 239
delta_26 180
delta_12 175
delta_-7 148
delta_14 137
delta_23 137
delta_-18 131
delta_-15 115
delta_10 112
delta_-17 108
delta_-30 91
delta_-20 91
delta_-11 75
delta_13 64
delta_17 63
delta_-16 55
delta_15 54
delta_35 53
delta_30 53
delta_22 45
delta_38 41
delta_-23 38
delta_32 36
delta_-19 32
delta_-29 24
delta_-27 22
delta_25 16
delta_45 16
delta_-33 11
delta_-49 10
delta_-26 8
delta_-41 8
delta_-25 6
delta_-35 5
delta_28 5
delta_16 5
delta_-24 4
delta_31 3
delta_-47 1
delta_24 1
delta_27 1
delta_-43 1
delta_-45 1

depth_1_delta_1 1749576
depth_1_delta_3 46111
depth_1_delta_2 42546
depth_1_delta_-1 11245
depth_1_delta_-2 5378
depth_1_delta_-3 3519
depth_1_delta_-12 1660
depth_1_delta_5 1654
depth_1_delta_6 1165
depth_1_delta_4 1139
depth_1_delta_-4 1081
depth_1_delta_7 1021
depth_1_delta_-5 962
depth_1_delta_-21 728
depth_1_delta_34 637
depth_1_delta_8 600
depth_1_delta_-22 552
depth_1_delta_36 542
depth_1_delta_-9 496
depth_1_delta_18 451
depth_1_delta_11 385
depth_1_delta_-13 334
depth_1_delta_19 306
depth_1_delta_-10 292
depth_1_delta_20 279
depth_1_delta_-8 276
depth_1_delta_-14 249
depth_1_delta_-6 235
depth_1_delta_9 211
depth_1_delta_37 208
depth_1_delta_26 180
depth_1_delta_12 172
depth_1_delta_-7 148
depth_1_delta_23 137
depth_1_delta_-18 131
depth_1_delta_14 120
depth_1_delta_-15 113
depth_1_delta_-17 106
depth_1_delta_10 95
depth_1_delta_-30 91
depth_1_delta_-20 91
depth_1_delta_-11 74
depth_1_delta_15 54
depth_1_delta_-16 54
depth_1_delta_17 54
depth_1_delta_35 53
depth_1_delta_30 53
depth_1_delta_22 44
depth_1_delta_38 41
depth_1_delta_13 40
depth_1_delta_-23 38
depth_1_delta_32 35
depth_1_delta_-19 32
depth_1_delta_-27 22
depth_1_delta_-29 22
depth_1_delta_25 16
depth_1_delta_45 16
depth_1_delta_-33 11
depth_1_delta_-49 10
depth_1_delta_-26 8
depth_1_delta_-41 8
depth_1_delta_-25 6
depth_1_delta_-35 5
depth_1_delta_16 5
depth_1_delta_28 5
depth_1_delta_-24 4
depth_1_delta_31 3
depth_1_delta_27 1
depth_1_delta_-47 1
depth_1_delta_-43 1
depth_1_delta_24 1
depth_1_delta_-45 1
depth_2_delta_1 937064
depth_2_delta_3 34393
depth_2_delta_2 28874
depth_2_delta_-1 2278
depth_2_delta_-2 2199
depth_2_delta_5 610
depth_2_delta_-3 543
depth_2_delta_34 524
depth_2_delta_6 264
depth_2_delta_7 225
depth_2_delta_-5 170
depth_2_delta_-4 148
depth_2_delta_18 93
depth_2_delta_4 79
depth_2_delta_-10 72
depth_2_delta_36 53
depth_2_delta_-14 43
depth_2_delta_9 42
depth_2_delta_-6 42
depth_2_delta_20 32
depth_2_delta_37 31
depth_2_delta_13 24
depth_2_delta_8 19
depth_2_delta_10 16
depth_2_delta_14 16
depth_2_delta_-21 14
depth_2_delta_17 9
depth_2_delta_-8 9
depth_2_delta_12 3
depth_2_delta_-29 2
depth_2_delta_-15 2
depth_2_delta_-17 2
depth_2_delta_-11 1
depth_2_delta_-16 1
depth_2_delta_22 1
depth_2_delta_32 1
depth_2_delta_-13 1
depth_3_delta_1 650695
depth_3_delta_2 19252
depth_3_delta_3 14539
depth_3_delta_-1 802
depth_3_delta_34 458
depth_3_delta_-3 341
depth_3_delta_5 315
depth_3_delta_-2 199
depth_3_delta_7 96
depth_3_delta_-5 91
depth_3_delta_-4 38
depth_3_delta_-6 21
depth_3_delta_6 16
depth_3_delta_4 12
depth_3_delta_18 11
depth_3_delta_20 5
depth_3_delta_-10 3
depth_3_delta_8 2
depth_3_delta_14 1
depth_3_delta_10 1
depth_4_delta_1 461559
depth_4_delta_2 8605
depth_4_delta_3 6531
depth_4_delta_-1 376
depth_4_delta_-3 228
depth_4_delta_-2 145
depth_4_delta_5 124
depth_4_delta_7 44
depth_4_delta_-5 12
depth_4_delta_18 2
depth_5_delta_1 320171
depth_5_delta_2 7403
depth_5_delta_-1 258
depth_5_delta_-2 116
depth_5_delta_5 57
depth_5_delta_3 51
depth_5_delta_7 27
depth_5_delta_-5 3
depth_6_delta_1 210354
depth_6_delta_2 5284
depth_6_delta_-1 131
depth_6_delta_-2 68
depth_6_delta_5 31
depth_6_delta_7 10
depth_6_delta_3 6
depth_7_delta_1 115471
depth_7_delta_2 2781
depth_7_delta_5 14
depth_7_delta_-2 13
depth_7_delta_-1 12
depth_7_delta_7 3
depth_8_delta_1 43349
depth_8_delta_2 504
depth_8_delta_5 2
depth_8_delta_7 1
depth_9_delta_1 18682
depth_9_delta_2 7
depth_10_delta_1 2367

spp.pref.total 3405057
spp.pref.at_L2 303179
spp.pref.at_LLC 3101878

spp.depth.max 10
spp.depth.min 0
spp.depth.avg 1

spp.breadth.max 2
spp.breadth.min 0
spp.breadth.avg 0

delta_1 3422294
delta_2 23643
delta_-1 14148
delta_3 8363
delta_-2 6185
delta_-3 5400
delta_5 3105
delta_7 1913
delta_18 1705
delta_-4 1550
delta_6 1462
delta_34 1426
delta_4 1190
delta_9 1164
delta_36 761
delta_-28 734
delta_8 601
delta_24 525
delta_-5 523
delta_-6 509
delta_-12 423
delta_-9 354
delta_11 304
delta_19 232
delta_-10 191
delta_10 190
delta_-7 183
delta_-16 181
delta_-19 159
delta_23 154
delta_-8 152
delta_-17 151
delta_-11 129
delta_17 91
delta_22 90
delta_-13 84
delta_37 84
delta_35 72
delta_-18 65
delta_14 60
delta_-14 59
delta_20 50
delta_-15 49
delta_12 45
delta_32 44
delta_15 35
delta_28 29
delta_13 25
delta_-46 23
delta_26 17
delta_-24 16
delta_42 16
delta_-21 15
delta_30 15
delta_-23 12
delta_-26 7
delta_-47 6
delta_-32 6
delta_-20 6
delta_31 5
delta_-27 5
delta_-30 5
delta_-35 4
delta_-58 3
delta_-40 2
delta_43 1
delta_25 1

depth_1_delta_1 1422125
depth_1_delta_2 9157
depth_1_delta_-1 8223
depth_1_delta_3 4520
depth_1_delta_-3 4246
depth_1_delta_-2 3588
depth_1_delta_5 1718
depth_1_delta_18 1705
depth_1_delta_7 1376
depth_1_delta_-4 1298
depth_1_delta_6 1201
depth_1_delta_4 1187
depth_1_delta_-28 734
depth_1_delta_36 648
depth_1_delta_8 593
depth_1_delta_34 575
depth_1_delta_9 537
depth_1_delta_-5 518
depth_1_delta_-6 509
depth_1_delta_24 489
depth_1_delta_-12 412
depth_1_delta_-9 354
depth_1_delta_11 304
depth_1_delta_19 232
depth_1_delta_-7 183
depth_1_delta_10 178
depth_1_delta_-16 175
depth_1_delta_-10 174
depth_1_delta_-19 159
depth_1_delta_23 154
depth_1_delta_-8 152
depth_1_delta_-17 142
depth_1_delta_-11 129
depth_1_delta_22 90
depth_1_delta_37 84
depth_1_delta_-13 84
depth_1_delta_17 84
depth_1_delta_35 72
depth_1_delta_-18 65
depth_1_delta_-14 59
depth_1_delta_20 50
depth_1_delta_14 50
depth_1_delta_-15 49
depth_1_delta_12 42
depth_1_delta_32 38
depth_1_delta_15 35
depth_1_delta_28 29
depth_1_delta_13 25
depth_1_delta_-46 23
depth_1_delta_26 17
depth_1_delta_-24 16
depth_1_delta_42 16
depth_1_delta_30 15
depth_1_delta_-21 15
depth_1_delta_-23 12
depth_1_delta_-26 7
depth_1_delta_-47 6
depth_1_delta_-20 6
depth_1_delta_-32 6
depth_1_delta_-27 5
depth_1_delta_31 5
depth_1_delta_-30 5
depth_1_delta_-35 4
depth_1_delta_-58 3
depth_1_delta_-40 2
depth_1_delta_43 1
depth_1_delta_25 1
depth_2_delta_1 676050
depth_2_delta_2 5192
depth_2_delta_-1 2639
depth_2_delta_-2 2580
depth_2_delta_3 2240
depth_2_delta_5 704
depth_2_delta_-3 699
depth_2_delta_34 454
depth_2_delta_7 335
depth_2_delta_9 282
depth_2_delta_6 234
depth_2_delta_-4 219
depth_2_delta_36 111
depth_2_delta_24 36
depth_2_delta_-10 16
depth_2_delta_-12 11
depth_2_delta_10 11
depth_2_delta_14 10
depth_2_delta_-17 9
depth_2_delta_17 7
depth_2_delta_32 6
depth_2_delta_-16 6
depth_2_delta_8 5
depth_2_delta_-5 5
depth_2_delta_4 3
depth_2_delta_12 3
depth_3_delta_1 492264
depth_3_delta_2 3679
depth_3_delta_3 1595
depth_3_delta_-1 1337
depth_3_delta_5 358
depth_3_delta_34 346
depth_3_delta_-3 302
depth_3_delta_9 216
depth_3_delta_7 135
depth_3_delta_-4 33
depth_3_delta_6 26
depth_3_delta_-2 16
depth_3_delta_8 3
depth_3_delta_36 2
depth_3_delta_10 1
depth_3_delta_-10 1
depth_4_delta_1 345890
depth_4_delta_2 2723
depth_4_delta_-1 908
depth_4_delta_5 159
depth_4_delta_-3 150
depth_4_delta_9 129
depth_4_delta_34 51
depth_4_delta_7 46
depth_4_delta_3 8
depth_4_delta_6 1
depth_4_delta_-2 1
depth_5_delta_1 212128
depth_5_delta_2 1760
depth_5_delta_-1 566
depth_5_delta_5 92
depth_5_delta_7 13
depth_5_delta_-3 3
depth_6_delta_1 131855
depth_6_delta_2 896
depth_6_delta_-1 347
depth_6_delta_5 49
depth_6_delta_7 6
depth_7_delta_1 77937
depth_7_delta_2 236
depth_7_delta_-1 128
depth_7_delta_5 20
depth_7_delta_7 2
depth_8_delta_1 39722
depth_8_delta_5 5
depth_9_delta_1 20592
depth_10_delta_1 3731

spp.pref.total 4603891
spp.pref.at_L2 418375
spp.pref.at_LLC 4185516

spp.depth.max 11
spp.depth.min 0
spp.depth.avg 2

spp.breadth.max 2
spp.breadth.min 0
spp.breadth.avg 0

delta_1 4632302
delta_2 22557
delta_-1 16978
delta_-2 15193
delta_3 13393
delta_-3 12308
delta_-8 12033
delta_5 5442
delta_4 4863
delta_9 4744
delta_6 4032
delta_7 2659
delta_-4 2353
delta_34 1686
delta_-6 1551
delta_-5 1380
delta_8 1199
delta_-11 966
delta_-22 964
delta_-9 897
delta_-13 759
delta_32 543
delta_-14 511
delta_-10 470
delta_-37 409
delta_36 396
delta_-12 375
delta_-15 318
delta_20 256
delta_-7 255
delta_14 250
delta_-17 230
delta_11 223
delta_19 190
delta_-25 187
delta_23 172
delta_-19 150
delta_26 124
delta_18 122
delta_37 117
delta_17 115
delta_15 103
delta_10 102
delta_-24 98
delta_31 89
delta_38 65
delta_22 63
delta_-36 62
delta_12 61
delta_-23 60
delta_-29 51
delta_41 50
delta_-26 48
delta_35 45
delta_-31 41
delta_45 40
delta_-16 39
delta_33 37
delta_13 24
delta_-43 23
delta_-18 21
delta_30 19
delta_-20 17
delta_-33 14
delta_-30 13
delta_28 12
delta_25 8
delta_-46 6
delta_-21 3
delta_55 2

depth_1_delta_1 1547359
depth_1_delta_2 20887
depth_1_delta_-1 11453
depth_1_delta_-3 9208
depth_1_delta_-2 8900
depth_1_delta_3 6564
depth_1_delta_4 4635
depth_1_delta_9 4552
depth_1_delta_5 3725
depth_1_delta_-8 2778
depth_1_delta_6 2499
depth_1_delta_7 2009
depth_1_delta_-4 1708
depth_1_delta_-6 1192
depth_1_delta_8 1187
depth_1_delta_-5 1130
depth_1_delta_-11 964
depth_1_delta_-13 737
depth_1_delta_34 734
depth_1_delta_-9 729
depth_1_delta_32 520
depth_1_delta_-14 452
depth_1_delta_-10 424
depth_1_delta_-37 409
depth_1_delta_-22 374
depth_1_delta_-12 350
depth_1_delta_36 336
depth_1_delta_-15 282
depth_1_delta_14 248
depth_1_delta_-17 227
depth_1_delta_-7 223
depth_1_delta_20 223
depth_1_delta_11 222
depth_1_delta_19 190
depth_1_delta_23 172
depth_1_delta_-19 150
depth_1_delta_-25 143
depth_1_delta_18 122
depth_1_delta_26 118
depth_1_delta_37 117
depth_1_delta_17 111
depth_1_delta_15 101
depth_1_delta_31 86
depth_1_delta_10 84
depth_1_delta_-24 79
depth_1_delta_38 65
depth_1_delta_22 63
depth_1_delta_-36 62
depth_1_delta_12 61
depth_1_delta_-23 60
depth_1_delta_41 50
depth_1_delta_-29 49
depth_1_delta_-26 47
depth_1_delta_35 45
depth_1_delta_-31 41
depth_1_delta_45 40
depth_1_delta_-16 39
depth_1_delta_33 37
depth_1_delta_13 24
depth_1_delta_-43 23
depth_1_delta_-18 21
depth_1_delta_30 19
depth_1_delta_-20 17
depth_1_delta_-33 14
depth_1_delta_28 12
depth_1_delta_-30 12
depth_1_delta_25 8
depth_1_delta_-46 6
depth_1_delta_-21 3
depth_1_delta_55 2
depth_2_delta_1 878238
depth_2_delta_-8 9245
depth_2_delta_-2 5905
depth_2_delta_3 4188
depth_2_delta_-1 3219
depth_2_delta_-3 2387
depth_2_delta_6 1496
depth_2_delta_2 984
depth_2_delta_5 950
depth_2_delta_34 534
depth_2_delta_-4 523
depth_2_delta_7 420
depth_2_delta_-5 250
depth_2_delta_-6 239
depth_2_delta_-22 199
depth_2_delta_9 184
depth_2_delta_-9 146
depth_2_delta_4 138
depth_2_delta_36 60
depth_2_delta_-14 58
depth_2_delta_-25 42
depth_2_delta_-10 41
depth_2_delta_20 32
depth_2_delta_-7 32
depth_2_delta_-15 28
depth_2_delta_-12 25
depth_2_delta_32 23
depth_2_delta_-13 22
depth_2_delta_-24 18
depth_2_delta_10 16
depth_2_delta_8 12
depth_2_delta_26 6
depth_2_delta_17 4
depth_2_delta_31 3
depth_2_delta_-17 3
depth_2_delta_-11 2
depth_2_delta_15 2
depth_2_delta_-29 2
depth_2_delta_14 2
depth_2_delta_-30 1
depth_2_delta_11 1
depth_2_delta_-26 1
depth_3_delta_1 664642
depth_3_delta_3 2641
depth_3_delta_-1 1311
depth_3_delta_5 502
depth_3_delta_-3 499
depth_3_delta_34 416
depth_3_delta_2 327
depth_3_delta_-2 273
depth_3_delta_-22 170
depth_3_delta_-4 119
depth_3_delta_7 117
depth_3_delta_-6 88
depth_3_delta_4 58
depth_3_delta_6 25
depth_3_delta_-9 22
depth_3_delta_-8 10
depth_3_delta_-15 8
depth_3_delta_9 8
depth_3_delta_-10 5
depth_3_delta_-25 2
depth_3_delta_10 2
depth_3_delta_-24 1
depth_3_delta_-14 1
depth_3_delta_20 1
depth_4_delta_1 509587
depth_4_delta_-1 592
depth_4_delta_-3 214
depth_4_delta_2 213
depth_4_delta_5 166
depth_4_delta_-22 165
depth_4_delta_-2 79
depth_4_delta_7 53
depth_4_delta_4 24
depth_4_delta_-6 24
depth_4_delta_6 12
depth_4_delta_-4 3
depth_4_delta_34 2
depth_5_delta_1 374265
depth_5_delta_-1 291
depth_5_delta_2 146
depth_5_delta_5 60
depth_5_delta_-22 50
depth_5_delta_-2 34
depth_5_delta_7 28
depth_5_delta_-6 8
depth_5_delta_4 8
depth_6_delta_1 269881
depth_6_delta_-1 112
depth_6_delta_5 27
depth_6_delta_7 19
depth_6_delta_-22 6
depth_6_delta_-2 2
depth_7_delta_1 186673
depth_7_delta_7 11
depth_7_delta_5 9
depth_8_delta_1 118979
depth_8_delta_5 3
depth_8_delta_7 2
depth_9_delta_1 65995
depth_10_delta_1 16679
depth_11_delta_1 4

spp.pref.total 2794307
spp.pref.at_L2 237891
spp.pref.at_LLC 2556416

spp.depth.max 10
spp.depth.min 0
spp.depth.avg 1

spp.breadth.max 2
spp.breadth.min 0
spp.breadth.avg 0

delta_1 2782940
delta_-1 14195
delta_-2 13509
delta_3 12290
delta_2 10154
delta_-3 9111
delta_5 3259
delta_7 2799
delta_34 1994
delta_-32 1521
delta_-4 1366
delta_6 1217
delta_-22 1134
delta_36 750
delta_8 554
delta_-6 502
delta_-9 493
delta_4 491
delta_-21 360
delta_-5 332
delta_17 271
delta_19 249
delta_37 227
delta_-12 208
delta_-7 184
delta_23 183
delta_16 180
delta_-10 165
delta_-8 155
delta_35 132
delta_18 117
delta_22 97
delta_-19 94
delta_14 81
delta_-18 80
delta_10 75
delta_-16 70
delta_-14 67
delta_11 66
delta_9 64
delta_-17 55
delta_-20 53
delta_20 46
delta_-13 46
delta_-15 45
delta_15 35
delta_32 21
delta_42 21
delta_12 20
delta_-23 19
delta_26 17
delta_38 10
delta_31 10
delta_-11 10
delta_-47 7
delta_13 6
delta_28 4
delta_-38 4
delta_-45 3
delta_27 3
delta_-26 3
delta_24 2
delta_-35 2
delta_43 2
delta_56 1
delta_33 1

depth_1_delta_1 1312820
depth_1_delta_-1 9409
depth_1_delta_-3 7152
depth_1_delta_-2 6611
depth_1_delta_3 5942
depth_1_delta_2 5266
depth_1_delta_7 2243
depth_1_delta_5 2078
depth_1_delta_-32 1521
depth_1_delta_-4 1216
depth_1_delta_6 976
depth_1_delta_34 821
depth_1_delta_36 672
depth_1_delta_-22 614
depth_1_delta_8 542
depth_1_delta_-6 498
depth_1_delta_-9 493
depth_1_delta_4 490
depth_1_delta_-21 360
depth_1_delta_-5 329
depth_1_delta_17 265
depth_1_delta_19 249
depth_1_delta_37 206
depth_1_delta_-12 205
depth_1_delta_-7 184
depth_1_delta_23 183
depth_1_delta_16 180
depth_1_delta_-10 161
depth_1_delta_-8 155
depth_1_delta_18 117
depth_1_delta_35 108
depth_1_delta_22 97
depth_1_delta_-19 94
depth_1_delta_-18 80
depth_1_delta_14 72
depth_1_delta_10 71
depth_1_delta_-16 70
depth_1_delta_-14 67
depth_1_delta_11 66
depth_1_delta_9 64
depth_1_delta_-17 55
depth_1_delta_-13 46
depth_1_delta_20 46
depth_1_delta_-15 45
depth_1_delta_-20 44
depth_1_delta_15 35
depth_1_delta_32 21
depth_1_delta_42 21
depth_1_delta_12 20
depth_1_delta_-23 19
depth_1_delta_26 17
depth_1_delta_38 10
depth_1_delta_31 10
depth_1_delta_-11 10
depth_1_delta_-47 7
depth_1_delta_13 6
depth_1_delta_28 4
depth_1_delta_-38 4
depth_1_delta_-45 3
depth_1_delta_27 3
depth_1_delta_-26 3
depth_1_delta_24 2
depth_1_delta_-35 2
depth_1_delta_43 2
depth_1_delta_56 1
depth_1_delta_33 1
depth_2_delta_1 565494
depth_2_delta_-2 5206
depth_2_delta_3 3846
depth_2_delta_2 2915
depth_2_delta_-1 2467
depth_2_delta_-3 1159
depth_2_delta_5 762
depth_2_delta_34 509
depth_2_delta_7 403
depth_2_delta_6 222
depth_2_delta_-22 203
depth_2_delta_-4 135
depth_2_delta_36 78
depth_2_delta_35 23
depth_2_delta_37 21
depth_2_delta_8 12
depth_2_delta_14 9
depth_2_delta_-20 9
depth_2_delta_17 6
depth_2_delta_-10 4
depth_2_delta_-6 4
depth_2_delta_10 4
depth_2_delta_-5 3
depth_2_delta_-12 3
depth_2_delta_4 1
depth_3_delta_1 397870
depth_3_delta_3 2502
depth_3_delta_-1 1686
depth_3_delta_2 917
depth_3_delta_-2 692
depth_3_delta_-3 527
depth_3_delta_34 396
depth_3_delta_5 344
depth_3_delta_-22 171
depth_3_delta_7 112
depth_3_delta_-4 15
depth_3_delta_6 12
depth_3_delta_35 1
depth_4_delta_1 243345
depth_4_delta_2 623
depth_4_delta_-2 575
depth_4_delta_-1 392
depth_4_delta_34 268
depth_4_delta_-3 262
depth_4_delta_-22 142
depth_4_delta_5 59
depth_4_delta_7 29
depth_4_delta_6 7
depth_5_delta_1 126336
depth_5_delta_2 363
depth_5_delta_-2 341
depth_5_delta_-1 175
depth_5_delta_5 12
depth_5_delta_-3 11
depth_5_delta_7 11
depth_5_delta_-22 4
depth_6_delta_1 72776
depth_6_delta_-2 84
depth_6_delta_2 66
depth_6_delta_-1 66
depth_6_delta_5 4
depth_6_delta_7 1
depth_7_delta_1 39472
depth_7_delta_2 4
depth_8_delta_1 16711
depth_9_delta_1 7549
depth_10_delta_1 567

Channel_0_RQ_row_buffer_hit 220164
Channel_0_RQ_row_buffer_miss 2476118
Channel_0_WQ_row_buffer_hit 123430
Channel_0_WQ_row_buffer_miss 533794
Channel_0_WQ_full 0
Channel_0_dbus_congested 852661

Channel_1_RQ_row_buffer_hit 219040
Channel_1_RQ_row_buffer_miss 2483890
Channel_1_WQ_row_buffer_hit 125782
Channel_1_WQ_row_buffer_miss 534324
Channel_1_WQ_full 0
Channel_1_dbus_congested 852333

avg_congested_cycle 9

DRAM_bw_pochs 1911626
DRAM_bw_level_0 1651855
DRAM_bw_level_1 220297
DRAM_bw_level_2 28352
DRAM_bw_level_3 11122
