*************************************************
   ChampSim Multicore Out-of-Order Simulator
   Last compiled: Mar 31 2025 20:14:32
*************************************************
parsing config file: /data3/config/spp_dev2.ini

trace_0 /data3/CASSANDRA/traces/cassandra_phase0_core0.trace.xz
trace_1 /data3/CASSANDRA/traces/cassandra_phase0_core1.trace.xz
trace_2 /data3/CASSANDRA/traces/cassandra_phase0_core2.trace.xz
trace_3 /data3/CASSANDRA/traces/cassandra_phase0_core3.trace.xz
adding L2C_PREFETCHER: SPP_dev2
Initialize SIGNATURE TABLE
ST_SET: 1
ST_WAY: 256
ST_TAG_BIT: 16
ST_TAG_MASK: ffff

Initialize PATTERN TABLE
PT_SET: 512
PT_WAY: 4
SIG_DELTA_BIT: 7
C_SIG_BIT: 4
C_DELTA_BIT: 4

Initialize PREFETCH FILTER
FILTER_SET: 1024
fill_threshold: 90
pf_threshold: 40

adding L2C_PREFETCHER: SPP_dev2
Initialize SIGNATURE TABLE
ST_SET: 1
ST_WAY: 256
ST_TAG_BIT: 16
ST_TAG_MASK: ffff

Initialize PATTERN TABLE
PT_SET: 512
PT_WAY: 4
SIG_DELTA_BIT: 7
C_SIG_BIT: 4
C_DELTA_BIT: 4

Initialize PREFETCH FILTER
FILTER_SET: 1024
fill_threshold: 90
pf_threshold: 40

adding L2C_PREFETCHER: SPP_dev2
Initialize SIGNATURE TABLE
ST_SET: 1
ST_WAY: 256
ST_TAG_BIT: 16
ST_TAG_MASK: ffff

Initialize PATTERN TABLE
PT_SET: 512
PT_WAY: 4
SIG_DELTA_BIT: 7
C_SIG_BIT: 4
C_DELTA_BIT: 4

Initialize PREFETCH FILTER
FILTER_SET: 1024
fill_threshold: 90
pf_threshold: 40

adding L2C_PREFETCHER: SPP_dev2
Initialize SIGNATURE TABLE
ST_SET: 1
ST_WAY: 256
ST_TAG_BIT: 16
ST_TAG_MASK: ffff

Initialize PATTERN TABLE
PT_SET: 512
PT_WAY: 4
SIG_DELTA_BIT: 7
C_SIG_BIT: 4
C_DELTA_BIT: 4

Initialize PREFETCH FILTER
FILTER_SET: 1024
fill_threshold: 90
pf_threshold: 40

Initialize SHIP state
warmup_instructions 50000000
simulation_instructions 150000000
champsim_seed 8742
measure_ipc 0
measure_ipc_epoch 1000
measure_dram_bw 1
measure_dram_bw_epoch 256
measure_cache_acc 1
measure_cache_acc_epoch 1024
l1d_perfect 0
l2c_perfect 0
llc_perfect 0
l1d_semi_perfect 0
l2c_semi_perfect 0
llc_semi_perfect 0
semi_perfect_cache_page_buffer_size 64

num_cpus 4
cpu_freq 4000
dram_io_freq 2400
page_size 4096
block_size 64
max_read_per_cycle 8
max_fill_per_cycle 1
dram_channels 2
log2_dram_channels 1
dram_ranks 1
dram_banks 8
dram_rows 65536
dram_columns 128
dram_row_size 8
dram_size 8192
dram_pages 2097152

fetch_width 6
decode_width 6
exec_width 4
lq_width 2
sq_width 2
retire_width 4
scheduler_size 128
branch_mispredict_penalty 20
rob_size 256
lq_size 72
sq_size 56
num_instr_destinations_sparc 4
num_instr_destinations 2
num_instr_sources 4

itlb_set 16
itlb_way 8
itlb_rq_size 16
itlb_wq_size 16
itlb_pq_size 0
itlb_mshr_size 8
itlb_latency 1

dtlb_set 16
dtlb_way 4
dtlb_rq_size 16
dtlb_wq_size 16
dtlb_pq_size 0
dtlb_mshr_size 8
dtlb_latency 1

stlb_set 128
stlb_way 12
stlb_rq_size 32
stlb_wq_size 32
stlb_pq_size 0
stlb_mshr_size 16
stlb_latency 8

l1i_size 32
l1i_set 64
l1i_way 8
l1i_rq_size 64
l1i_wq_size 64
l1i_pq_size 8
l1i_mshr_size 8
l1i_latency 1

l1d_size 32
l1d_set 64
l1d_way 8
l1d_rq_size 64
l1d_wq_size 64
l1d_pq_size 8
l1d_mshr_size 16
l1d_latency 4

l2c_size 256
l2c_set 512
l2c_way 8
l2c_rq_size 32
l2c_wq_size 32
l2c_pq_size 32
l2c_mshr_size 32
l2c_latency 10

llc_size 8192
llc_set 8192
llc_way 16
llc_rq_size 128
llc_wq_size 128
llc_pq_size 128
llc_mshr_size 256
llc_latency 20

dram_channel_width 8
dram_wq_size 64
dram_rq_size 64
tRP 15
tRCD 15
tCAS 12.5
dram_dbus_turn_around_time 30
dram_write_high_wm 56
dram_write_low_wm 48
min_dram_writes_per_switch 16
dram_mtps 2400
dram_dbus_return_time 13


Heartbeat CPU  3 instructions:    1000002 cycles:     349384 heartbeat IPC: 2.86219 cumulative IPC: 2.86219 (Simulation time: 0 hr 0 min 5 sec) 
Heartbeat CPU  2 instructions:    1000002 cycles:     393994 heartbeat IPC: 2.53811 cumulative IPC: 2.53811 (Simulation time: 0 hr 0 min 6 sec) 
Heartbeat CPU  0 instructions:    1000000 cycles:     535125 heartbeat IPC: 1.86872 cumulative IPC: 1.86872 (Simulation time: 0 hr 0 min 8 sec) 
Heartbeat CPU  1 instructions:    1000001 cycles:     542635 heartbeat IPC: 1.84286 cumulative IPC: 1.84286 (Simulation time: 0 hr 0 min 8 sec) 
Heartbeat CPU  3 instructions:    2000000 cycles:     676950 heartbeat IPC: 3.05281 cumulative IPC: 2.95443 (Simulation time: 0 hr 0 min 10 sec) 
Heartbeat CPU  2 instructions:    2000000 cycles:     730285 heartbeat IPC: 2.97361 cumulative IPC: 2.73866 (Simulation time: 0 hr 0 min 11 sec) 
Heartbeat CPU  0 instructions:    2000000 cycles:     904949 heartbeat IPC: 2.70399 cumulative IPC: 2.21007 (Simulation time: 0 hr 0 min 13 sec) 
Heartbeat CPU  3 instructions:    3000000 cycles:     996929 heartbeat IPC: 3.12521 cumulative IPC: 3.00924 (Simulation time: 0 hr 0 min 15 sec) 
Heartbeat CPU  2 instructions:    3000000 cycles:    1066570 heartbeat IPC: 2.97367 cumulative IPC: 2.81275 (Simulation time: 0 hr 0 min 16 sec) 
Heartbeat CPU  1 instructions:    2000003 cycles:    1286371 heartbeat IPC: 1.34457 cumulative IPC: 1.55476 (Simulation time: 0 hr 0 min 18 sec) 
Heartbeat CPU  3 instructions:    4000000 cycles:    1324031 heartbeat IPC: 3.05715 cumulative IPC: 3.02108 (Simulation time: 0 hr 0 min 19 sec) 
Heartbeat CPU  0 instructions:    3000003 cycles:    1602746 heartbeat IPC: 1.43309 cumulative IPC: 1.87179 (Simulation time: 0 hr 0 min 22 sec) 
Heartbeat CPU  1 instructions:    3000002 cycles:    1634568 heartbeat IPC: 2.87193 cumulative IPC: 1.83535 (Simulation time: 0 hr 0 min 23 sec) 
Heartbeat CPU  3 instructions:    5000001 cycles:    1655689 heartbeat IPC: 3.01516 cumulative IPC: 3.01989 (Simulation time: 0 hr 0 min 23 sec) 
Heartbeat CPU  2 instructions:    4000000 cycles:    1742791 heartbeat IPC: 1.47881 cumulative IPC: 2.29517 (Simulation time: 0 hr 0 min 25 sec) 
Heartbeat CPU  1 instructions:    4000000 cycles:    1977386 heartbeat IPC: 2.91699 cumulative IPC: 2.02287 (Simulation time: 0 hr 0 min 28 sec) 
Heartbeat CPU  0 instructions:    4000000 cycles:    2011232 heartbeat IPC: 2.44806 cumulative IPC: 1.98883 (Simulation time: 0 hr 0 min 29 sec) 
Heartbeat CPU  3 instructions:    6000002 cycles:    2038747 heartbeat IPC: 2.61057 cumulative IPC: 2.94299 (Simulation time: 0 hr 0 min 29 sec) 
Heartbeat CPU  2 instructions:    5000000 cycles:    2089211 heartbeat IPC: 2.88667 cumulative IPC: 2.39325 (Simulation time: 0 hr 0 min 30 sec) 
Heartbeat CPU  1 instructions:    5000003 cycles:    2305167 heartbeat IPC: 3.05083 cumulative IPC: 2.16904 (Simulation time: 0 hr 0 min 34 sec) 
Heartbeat CPU  3 instructions:    7000001 cycles:    2370975 heartbeat IPC: 3.00998 cumulative IPC: 2.95237 (Simulation time: 0 hr 0 min 35 sec) 
Heartbeat CPU  0 instructions:    5000001 cycles:    2386745 heartbeat IPC: 2.66303 cumulative IPC: 2.09490 (Simulation time: 0 hr 0 min 35 sec) 
Heartbeat CPU  2 instructions:    6000003 cycles:    2412628 heartbeat IPC: 3.09199 cumulative IPC: 2.48692 (Simulation time: 0 hr 0 min 36 sec) 
Heartbeat CPU  1 instructions:    6000002 cycles:    2630585 heartbeat IPC: 3.07297 cumulative IPC: 2.28086 (Simulation time: 0 hr 0 min 40 sec) 
Heartbeat CPU  3 instructions:    8000000 cycles:    2696950 heartbeat IPC: 3.06772 cumulative IPC: 2.96631 (Simulation time: 0 hr 0 min 41 sec) 
Heartbeat CPU  0 instructions:    6000002 cycles:    2711471 heartbeat IPC: 3.07952 cumulative IPC: 2.21282 (Simulation time: 0 hr 0 min 41 sec) 
Heartbeat CPU  2 instructions:    7000002 cycles:    2736697 heartbeat IPC: 3.08576 cumulative IPC: 2.55783 (Simulation time: 0 hr 0 min 42 sec) 
Heartbeat CPU  3 instructions:    9000003 cycles:    3016801 heartbeat IPC: 3.12647 cumulative IPC: 2.98329 (Simulation time: 0 hr 0 min 46 sec) 
Heartbeat CPU  0 instructions:    7000000 cycles:    3038295 heartbeat IPC: 3.05974 cumulative IPC: 2.30392 (Simulation time: 0 hr 0 min 46 sec) 
Heartbeat CPU  1 instructions:    7000001 cycles:    3118187 heartbeat IPC: 2.05085 cumulative IPC: 2.24489 (Simulation time: 0 hr 0 min 47 sec) 
Heartbeat CPU  2 instructions:    8000000 cycles:    3228703 heartbeat IPC: 2.03249 cumulative IPC: 2.47778 (Simulation time: 0 hr 0 min 49 sec) 
Heartbeat CPU  0 instructions:    8000000 cycles:    3357586 heartbeat IPC: 3.13194 cumulative IPC: 2.38266 (Simulation time: 0 hr 0 min 51 sec) 
Heartbeat CPU  3 instructions:   10000003 cycles:    3400658 heartbeat IPC: 2.60514 cumulative IPC: 2.94061 (Simulation time: 0 hr 0 min 51 sec) 
Heartbeat CPU  2 instructions:    9000000 cycles:    3578029 heartbeat IPC: 2.86266 cumulative IPC: 2.51535 (Simulation time: 0 hr 0 min 54 sec) 
Heartbeat CPU  1 instructions:    8000000 cycles:    3624848 heartbeat IPC: 1.97370 cumulative IPC: 2.20699 (Simulation time: 0 hr 0 min 55 sec) 
Heartbeat CPU  0 instructions:    9000001 cycles:    3681170 heartbeat IPC: 3.09039 cumulative IPC: 2.44488 (Simulation time: 0 hr 0 min 56 sec) 
Heartbeat CPU  3 instructions:   11000002 cycles:    3838379 heartbeat IPC: 2.28456 cumulative IPC: 2.86579 (Simulation time: 0 hr 0 min 58 sec) 
Heartbeat CPU  1 instructions:    9000000 cycles:    4015753 heartbeat IPC: 2.55817 cumulative IPC: 2.24117 (Simulation time: 0 hr 1 min 0 sec) 
Heartbeat CPU  2 instructions:   10000003 cycles:    4047678 heartbeat IPC: 2.12926 cumulative IPC: 2.47055 (Simulation time: 0 hr 1 min 1 sec) 
Heartbeat CPU  0 instructions:   10000000 cycles:    4085062 heartbeat IPC: 2.47591 cumulative IPC: 2.44794 (Simulation time: 0 hr 1 min 2 sec) 
Heartbeat CPU  3 instructions:   12000000 cycles:    4218757 heartbeat IPC: 2.62896 cumulative IPC: 2.84444 (Simulation time: 0 hr 1 min 4 sec) 
Heartbeat CPU  1 instructions:   10000003 cycles:    4340864 heartbeat IPC: 3.07588 cumulative IPC: 2.30369 (Simulation time: 0 hr 1 min 5 sec) 
Heartbeat CPU  3 instructions:   13000000 cycles:    4576577 heartbeat IPC: 2.79470 cumulative IPC: 2.84055 (Simulation time: 0 hr 1 min 9 sec) 
Heartbeat CPU  2 instructions:   11000000 cycles:    4581058 heartbeat IPC: 1.87483 cumulative IPC: 2.40119 (Simulation time: 0 hr 1 min 9 sec) 
Heartbeat CPU  0 instructions:   11000001 cycles:    4598787 heartbeat IPC: 1.94657 cumulative IPC: 2.39194 (Simulation time: 0 hr 1 min 9 sec) 
Heartbeat CPU  1 instructions:   11000002 cycles:    4741091 heartbeat IPC: 2.49858 cumulative IPC: 2.32014 (Simulation time: 0 hr 1 min 11 sec) 
Heartbeat CPU  2 instructions:   12000000 cycles:    4937277 heartbeat IPC: 2.80726 cumulative IPC: 2.43049 (Simulation time: 0 hr 1 min 15 sec) 
Heartbeat CPU  0 instructions:   12000000 cycles:    4937851 heartbeat IPC: 2.94929 cumulative IPC: 2.43021 (Simulation time: 0 hr 1 min 15 sec) 
Heartbeat CPU  3 instructions:   14000003 cycles:    4940170 heartbeat IPC: 2.75034 cumulative IPC: 2.83391 (Simulation time: 0 hr 1 min 15 sec) 
Heartbeat CPU  1 instructions:   12000000 cycles:    5068498 heartbeat IPC: 3.05430 cumulative IPC: 2.36757 (Simulation time: 0 hr 1 min 18 sec) 
Heartbeat CPU  2 instructions:   13000002 cycles:    5261554 heartbeat IPC: 3.08379 cumulative IPC: 2.47075 (Simulation time: 0 hr 1 min 21 sec) 
Heartbeat CPU  0 instructions:   13000001 cycles:    5263577 heartbeat IPC: 3.07007 cumulative IPC: 2.46980 (Simulation time: 0 hr 1 min 21 sec) 
Heartbeat CPU  3 instructions:   15000002 cycles:    5266991 heartbeat IPC: 3.05978 cumulative IPC: 2.84793 (Simulation time: 0 hr 1 min 21 sec) 
Heartbeat CPU  1 instructions:   13000001 cycles:    5394437 heartbeat IPC: 3.06806 cumulative IPC: 2.40989 (Simulation time: 0 hr 1 min 24 sec) 
Heartbeat CPU  3 instructions:   16000000 cycles:    5591685 heartbeat IPC: 3.07982 cumulative IPC: 2.86139 (Simulation time: 0 hr 1 min 27 sec) 
Heartbeat CPU  2 instructions:   14000002 cycles:    5605802 heartbeat IPC: 2.90488 cumulative IPC: 2.49741 (Simulation time: 0 hr 1 min 27 sec) 
Heartbeat CPU  0 instructions:   14000000 cycles:    5664352 heartbeat IPC: 2.49516 cumulative IPC: 2.47160 (Simulation time: 0 hr 1 min 28 sec) 
Heartbeat CPU  1 instructions:   14000001 cycles:    5734002 heartbeat IPC: 2.94494 cumulative IPC: 2.44158 (Simulation time: 0 hr 1 min 29 sec) 
Heartbeat CPU  2 instructions:   15000000 cycles:    5929155 heartbeat IPC: 3.09259 cumulative IPC: 2.52987 (Simulation time: 0 hr 1 min 32 sec) 
Heartbeat CPU  0 instructions:   15000000 cycles:    6007562 heartbeat IPC: 2.91367 cumulative IPC: 2.49685 (Simulation time: 0 hr 1 min 34 sec) 
Heartbeat CPU  3 instructions:   17000002 cycles:    6039914 heartbeat IPC: 2.23101 cumulative IPC: 2.81461 (Simulation time: 0 hr 1 min 34 sec) 
Heartbeat CPU  1 instructions:   15000003 cycles:    6056366 heartbeat IPC: 3.10209 cumulative IPC: 2.47673 (Simulation time: 0 hr 1 min 35 sec) 
Heartbeat CPU  0 instructions:   16000000 cycles:    6331541 heartbeat IPC: 3.08662 cumulative IPC: 2.52703 (Simulation time: 0 hr 1 min 39 sec) 
Heartbeat CPU  2 instructions:   16000000 cycles:    6333953 heartbeat IPC: 2.47037 cumulative IPC: 2.52607 (Simulation time: 0 hr 1 min 39 sec) 
Heartbeat CPU  3 instructions:   18000001 cycles:    6365409 heartbeat IPC: 3.07224 cumulative IPC: 2.82778 (Simulation time: 0 hr 1 min 40 sec) 
Heartbeat CPU  1 instructions:   16000000 cycles:    6380548 heartbeat IPC: 3.08468 cumulative IPC: 2.50762 (Simulation time: 0 hr 1 min 40 sec) 
Heartbeat CPU  0 instructions:   17000003 cycles:    6710325 heartbeat IPC: 2.64003 cumulative IPC: 2.53341 (Simulation time: 0 hr 1 min 44 sec) 
Heartbeat CPU  1 instructions:   17000000 cycles:    6766694 heartbeat IPC: 2.58969 cumulative IPC: 2.51231 (Simulation time: 0 hr 1 min 45 sec) 
Heartbeat CPU  3 instructions:   19000000 cycles:    6829806 heartbeat IPC: 2.15333 cumulative IPC: 2.78192 (Simulation time: 0 hr 1 min 46 sec) 
Heartbeat CPU  2 instructions:   17000001 cycles:    6848090 heartbeat IPC: 1.94501 cumulative IPC: 2.48244 (Simulation time: 0 hr 1 min 47 sec) 
Heartbeat CPU  0 instructions:   18000001 cycles:    7048686 heartbeat IPC: 2.95542 cumulative IPC: 2.55367 (Simulation time: 0 hr 1 min 50 sec) 
Heartbeat CPU  2 instructions:   18000001 cycles:    7164505 heartbeat IPC: 3.16041 cumulative IPC: 2.51239 (Simulation time: 0 hr 1 min 52 sec) 
Heartbeat CPU  3 instructions:   20000000 cycles:    7165399 heartbeat IPC: 2.97980 cumulative IPC: 2.79119 (Simulation time: 0 hr 1 min 52 sec) 
Heartbeat CPU  1 instructions:   18000002 cycles:    7351796 heartbeat IPC: 1.70911 cumulative IPC: 2.44838 (Simulation time: 0 hr 1 min 55 sec) 
Heartbeat CPU  0 instructions:   19000003 cycles:    7364714 heartbeat IPC: 3.16428 cumulative IPC: 2.57987 (Simulation time: 0 hr 1 min 55 sec) 
Heartbeat CPU  2 instructions:   19000003 cycles:    7487913 heartbeat IPC: 3.09208 cumulative IPC: 2.53742 (Simulation time: 0 hr 1 min 57 sec) 
Heartbeat CPU  3 instructions:   21000000 cycles:    7532471 heartbeat IPC: 2.72426 cumulative IPC: 2.78793 (Simulation time: 0 hr 1 min 58 sec) 
Heartbeat CPU  0 instructions:   20000000 cycles:    7695226 heartbeat IPC: 3.02560 cumulative IPC: 2.59901 (Simulation time: 0 hr 2 min 1 sec) 
Heartbeat CPU  1 instructions:   19000002 cycles:    7762222 heartbeat IPC: 2.43649 cumulative IPC: 2.44775 (Simulation time: 0 hr 2 min 2 sec) 
Heartbeat CPU  2 instructions:   20000000 cycles:    7877902 heartbeat IPC: 2.56417 cumulative IPC: 2.53875 (Simulation time: 0 hr 2 min 3 sec) 
Heartbeat CPU  3 instructions:   22000002 cycles:    7895314 heartbeat IPC: 2.75602 cumulative IPC: 2.78646 (Simulation time: 0 hr 2 min 4 sec) 
Heartbeat CPU  0 instructions:   21000000 cycles:    8019526 heartbeat IPC: 3.08356 cumulative IPC: 2.61861 (Simulation time: 0 hr 2 min 6 sec) 
Heartbeat CPU  1 instructions:   20000000 cycles:    8136277 heartbeat IPC: 2.67340 cumulative IPC: 2.45813 (Simulation time: 0 hr 2 min 8 sec) 
Heartbeat CPU  2 instructions:   21000002 cycles:    8209393 heartbeat IPC: 3.01668 cumulative IPC: 2.55805 (Simulation time: 0 hr 2 min 9 sec) 
Heartbeat CPU  3 instructions:   23000000 cycles:    8224485 heartbeat IPC: 3.03793 cumulative IPC: 2.79653 (Simulation time: 0 hr 2 min 9 sec) 
Heartbeat CPU  0 instructions:   22000001 cycles:    8343847 heartbeat IPC: 3.08337 cumulative IPC: 2.63667 (Simulation time: 0 hr 2 min 11 sec) 
Heartbeat CPU  1 instructions:   21000003 cycles:    8472304 heartbeat IPC: 2.97596 cumulative IPC: 2.47866 (Simulation time: 0 hr 2 min 14 sec) 
Heartbeat CPU  2 instructions:   22000001 cycles:    8529550 heartbeat IPC: 3.12346 cumulative IPC: 2.57927 (Simulation time: 0 hr 2 min 15 sec) 
Heartbeat CPU  3 instructions:   24000000 cycles:    8630911 heartbeat IPC: 2.46047 cumulative IPC: 2.78070 (Simulation time: 0 hr 2 min 16 sec) 
Heartbeat CPU  0 instructions:   23000003 cycles:    8716543 heartbeat IPC: 2.68316 cumulative IPC: 2.63866 (Simulation time: 0 hr 2 min 17 sec) 
Heartbeat CPU  2 instructions:   23000002 cycles:    8859566 heartbeat IPC: 3.03016 cumulative IPC: 2.59606 (Simulation time: 0 hr 2 min 19 sec) 
Heartbeat CPU  3 instructions:   25000001 cycles:    9024181 heartbeat IPC: 2.54278 cumulative IPC: 2.77033 (Simulation time: 0 hr 2 min 22 sec) 
Heartbeat CPU  1 instructions:   22000000 cycles:    9121518 heartbeat IPC: 1.54032 cumulative IPC: 2.41188 (Simulation time: 0 hr 2 min 23 sec) 
Heartbeat CPU  0 instructions:   24000000 cycles:    9166017 heartbeat IPC: 2.22482 cumulative IPC: 2.61837 (Simulation time: 0 hr 2 min 24 sec) 
Heartbeat CPU  2 instructions:   24000000 cycles:    9193783 heartbeat IPC: 2.99206 cumulative IPC: 2.61046 (Simulation time: 0 hr 2 min 24 sec) 
Heartbeat CPU  3 instructions:   26000002 cycles:    9352271 heartbeat IPC: 3.04795 cumulative IPC: 2.78007 (Simulation time: 0 hr 2 min 27 sec) 
Heartbeat CPU  0 instructions:   25000003 cycles:    9490150 heartbeat IPC: 3.08516 cumulative IPC: 2.63431 (Simulation time: 0 hr 2 min 29 sec) 
Heartbeat CPU  2 instructions:   25000001 cycles:    9519513 heartbeat IPC: 3.07003 cumulative IPC: 2.62618 (Simulation time: 0 hr 2 min 30 sec) 
Heartbeat CPU  1 instructions:   23000001 cycles:    9537461 heartbeat IPC: 2.40418 cumulative IPC: 2.41154 (Simulation time: 0 hr 2 min 30 sec) 
Heartbeat CPU  3 instructions:   27000001 cycles:    9679105 heartbeat IPC: 3.05965 cumulative IPC: 2.78951 (Simulation time: 0 hr 2 min 33 sec) 
Heartbeat CPU  0 instructions:   26000000 cycles:    9816620 heartbeat IPC: 3.06306 cumulative IPC: 2.64857 (Simulation time: 0 hr 2 min 35 sec) 
Heartbeat CPU  2 instructions:   26000003 cycles:    9845526 heartbeat IPC: 3.06737 cumulative IPC: 2.64079 (Simulation time: 0 hr 2 min 36 sec) 
Heartbeat CPU  1 instructions:   24000000 cycles:    9859338 heartbeat IPC: 3.10677 cumulative IPC: 2.43424 (Simulation time: 0 hr 2 min 36 sec) 
Heartbeat CPU  3 instructions:   28000000 cycles:   10006142 heartbeat IPC: 3.05775 cumulative IPC: 2.79828 (Simulation time: 0 hr 2 min 38 sec) 
Heartbeat CPU  0 instructions:   27000000 cycles:   10140701 heartbeat IPC: 3.08565 cumulative IPC: 2.66254 (Simulation time: 0 hr 2 min 41 sec) 
Heartbeat CPU  1 instructions:   25000002 cycles:   10184644 heartbeat IPC: 3.07403 cumulative IPC: 2.45468 (Simulation time: 0 hr 2 min 41 sec) 
Heartbeat CPU  2 instructions:   27000000 cycles:   10284728 heartbeat IPC: 2.27685 cumulative IPC: 2.62525 (Simulation time: 0 hr 2 min 43 sec) 
Heartbeat CPU  3 instructions:   29000001 cycles:   10332214 heartbeat IPC: 3.06681 cumulative IPC: 2.80676 (Simulation time: 0 hr 2 min 44 sec) 
Heartbeat CPU  0 instructions:   28000000 cycles:   10464478 heartbeat IPC: 3.08855 cumulative IPC: 2.67572 (Simulation time: 0 hr 2 min 46 sec) 
Heartbeat CPU  1 instructions:   26000000 cycles:   10509013 heartbeat IPC: 3.08290 cumulative IPC: 2.47407 (Simulation time: 0 hr 2 min 46 sec) 
Heartbeat CPU  3 instructions:   30000001 cycles:   10741647 heartbeat IPC: 2.44240 cumulative IPC: 2.79287 (Simulation time: 0 hr 2 min 50 sec) 
Heartbeat CPU  0 instructions:   29000001 cycles:   10786781 heartbeat IPC: 3.10267 cumulative IPC: 2.68848 (Simulation time: 0 hr 2 min 51 sec) 
Heartbeat CPU  1 instructions:   27000001 cycles:   10834271 heartbeat IPC: 3.07449 cumulative IPC: 2.49209 (Simulation time: 0 hr 2 min 51 sec) 
Heartbeat CPU  2 instructions:   28000000 cycles:   10916460 heartbeat IPC: 1.58295 cumulative IPC: 2.56493 (Simulation time: 0 hr 2 min 53 sec) 
Heartbeat CPU  3 instructions:   31000000 cycles:   11061069 heartbeat IPC: 3.13065 cumulative IPC: 2.80262 (Simulation time: 0 hr 2 min 55 sec) 
Heartbeat CPU  0 instructions:   30000002 cycles:   11110494 heartbeat IPC: 3.08916 cumulative IPC: 2.70015 (Simulation time: 0 hr 2 min 56 sec) 
Heartbeat CPU  1 instructions:   28000000 cycles:   11196265 heartbeat IPC: 2.76247 cumulative IPC: 2.50083 (Simulation time: 0 hr 2 min 58 sec) 
Heartbeat CPU  2 instructions:   29000001 cycles:   11294747 heartbeat IPC: 2.64350 cumulative IPC: 2.56757 (Simulation time: 0 hr 2 min 59 sec) 
Heartbeat CPU  3 instructions:   32000000 cycles:   11428957 heartbeat IPC: 2.71822 cumulative IPC: 2.79991 (Simulation time: 0 hr 3 min 1 sec) 
Heartbeat CPU  0 instructions:   31000003 cycles:   11491717 heartbeat IPC: 2.62314 cumulative IPC: 2.69760 (Simulation time: 0 hr 3 min 2 sec) 
Heartbeat CPU  2 instructions:   30000000 cycles:   11628715 heartbeat IPC: 2.99430 cumulative IPC: 2.57982 (Simulation time: 0 hr 3 min 4 sec) 
Heartbeat CPU  1 instructions:   29000002 cycles:   11808354 heartbeat IPC: 1.63375 cumulative IPC: 2.45589 (Simulation time: 0 hr 3 min 6 sec) 
Heartbeat CPU  3 instructions:   33000001 cycles:   11837253 heartbeat IPC: 2.44921 cumulative IPC: 2.78781 (Simulation time: 0 hr 3 min 7 sec) 
Heartbeat CPU  0 instructions:   32000000 cycles:   11865718 heartbeat IPC: 2.67378 cumulative IPC: 2.69684 (Simulation time: 0 hr 3 min 7 sec) 
Heartbeat CPU  2 instructions:   31000000 cycles:   12015606 heartbeat IPC: 2.58471 cumulative IPC: 2.57998 (Simulation time: 0 hr 3 min 9 sec) 
Heartbeat CPU  0 instructions:   33000000 cycles:   12233714 heartbeat IPC: 2.71742 cumulative IPC: 2.69746 (Simulation time: 0 hr 3 min 12 sec) 
Heartbeat CPU  1 instructions:   30000003 cycles:   12251828 heartbeat IPC: 2.25493 cumulative IPC: 2.44861 (Simulation time: 0 hr 3 min 13 sec) 
Heartbeat CPU  3 instructions:   34000001 cycles:   12289251 heartbeat IPC: 2.21240 cumulative IPC: 2.76665 (Simulation time: 0 hr 3 min 13 sec) 
Heartbeat CPU  1 instructions:   31000000 cycles:   12580160 heartbeat IPC: 3.04569 cumulative IPC: 2.46420 (Simulation time: 0 hr 3 min 17 sec) 
Heartbeat CPU  2 instructions:   32000000 cycles:   12609301 heartbeat IPC: 1.68437 cumulative IPC: 2.53781 (Simulation time: 0 hr 3 min 18 sec) 
Heartbeat CPU  3 instructions:   35000000 cycles:   12665250 heartbeat IPC: 2.65958 cumulative IPC: 2.76347 (Simulation time: 0 hr 3 min 18 sec) 
Heartbeat CPU  0 instructions:   34000003 cycles:   12686032 heartbeat IPC: 2.21084 cumulative IPC: 2.68011 (Simulation time: 0 hr 3 min 19 sec) 
Heartbeat CPU  3 instructions:   36000000 cycles:   12987126 heartbeat IPC: 3.10679 cumulative IPC: 2.77198 (Simulation time: 0 hr 3 min 24 sec) 
Heartbeat CPU  1 instructions:   32000000 cycles:   12987723 heartbeat IPC: 2.45361 cumulative IPC: 2.46387 (Simulation time: 0 hr 3 min 24 sec) 
Heartbeat CPU  0 instructions:   35000000 cycles:   13019702 heartbeat IPC: 2.99696 cumulative IPC: 2.68823 (Simulation time: 0 hr 3 min 24 sec) 
Heartbeat CPU  2 instructions:   33000002 cycles:   13047878 heartbeat IPC: 2.28011 cumulative IPC: 2.52915 (Simulation time: 0 hr 3 min 25 sec) 
Heartbeat CPU  3 instructions:   37000001 cycles:   13310512 heartbeat IPC: 3.09228 cumulative IPC: 2.77976 (Simulation time: 0 hr 3 min 29 sec) 
Heartbeat CPU  1 instructions:   33000003 cycles:   13329067 heartbeat IPC: 2.92960 cumulative IPC: 2.47579 (Simulation time: 0 hr 3 min 30 sec) 
Heartbeat CPU  0 instructions:   36000000 cycles:   13339000 heartbeat IPC: 3.13187 cumulative IPC: 2.69885 (Simulation time: 0 hr 3 min 30 sec) 
Heartbeat CPU  2 instructions:   34000000 cycles:   13381763 heartbeat IPC: 2.99504 cumulative IPC: 2.54077 (Simulation time: 0 hr 3 min 31 sec) 
Heartbeat CPU  3 instructions:   38000002 cycles:   13635556 heartbeat IPC: 3.07651 cumulative IPC: 2.78683 (Simulation time: 0 hr 3 min 35 sec) 
Heartbeat CPU  1 instructions:   34000003 cycles:   13660617 heartbeat IPC: 3.01614 cumulative IPC: 2.48891 (Simulation time: 0 hr 3 min 36 sec) 
Heartbeat CPU  0 instructions:   37000001 cycles:   13660665 heartbeat IPC: 3.10883 cumulative IPC: 2.70851 (Simulation time: 0 hr 3 min 36 sec) 
Heartbeat CPU  2 instructions:   35000001 cycles:   13704548 heartbeat IPC: 3.09804 cumulative IPC: 2.55390 (Simulation time: 0 hr 3 min 36 sec) 
Heartbeat CPU  3 instructions:   39000001 cycles:   13960039 heartbeat IPC: 3.08182 cumulative IPC: 2.79369 (Simulation time: 0 hr 3 min 41 sec) 
Heartbeat CPU  0 instructions:   38000003 cycles:   14039312 heartbeat IPC: 2.64099 cumulative IPC: 2.70669 (Simulation time: 0 hr 3 min 42 sec) 
Heartbeat CPU  1 instructions:   35000001 cycles:   14078419 heartbeat IPC: 2.39347 cumulative IPC: 2.48607 (Simulation time: 0 hr 3 min 42 sec) 
Heartbeat CPU  2 instructions:   36000000 cycles:   14191198 heartbeat IPC: 2.05486 cumulative IPC: 2.53678 (Simulation time: 0 hr 3 min 44 sec) 
Heartbeat CPU  3 instructions:   40000000 cycles:   14333585 heartbeat IPC: 2.67704 cumulative IPC: 2.79065 (Simulation time: 0 hr 3 min 45 sec) 
Heartbeat CPU  0 instructions:   39000002 cycles:   14364275 heartbeat IPC: 3.07727 cumulative IPC: 2.71507 (Simulation time: 0 hr 3 min 46 sec) 
Heartbeat CPU  2 instructions:   37000003 cycles:   14611930 heartbeat IPC: 2.37682 cumulative IPC: 2.53218 (Simulation time: 0 hr 3 min 49 sec) 
Heartbeat CPU  0 instructions:   40000000 cycles:   14689361 heartbeat IPC: 3.07610 cumulative IPC: 2.72306 (Simulation time: 0 hr 3 min 51 sec) 
Heartbeat CPU  3 instructions:   41000001 cycles:   14703047 heartbeat IPC: 2.70664 cumulative IPC: 2.78854 (Simulation time: 0 hr 3 min 51 sec) 
Heartbeat CPU  1 instructions:   36000000 cycles:   14795748 heartbeat IPC: 1.39406 cumulative IPC: 2.43313 (Simulation time: 0 hr 3 min 52 sec) 
Heartbeat CPU  2 instructions:   38000003 cycles:   14937493 heartbeat IPC: 3.07160 cumulative IPC: 2.54393 (Simulation time: 0 hr 3 min 55 sec) 
Heartbeat CPU  0 instructions:   41000003 cycles:   15011800 heartbeat IPC: 3.10137 cumulative IPC: 2.73118 (Simulation time: 0 hr 3 min 56 sec) 
Heartbeat CPU  3 instructions:   42000002 cycles:   15031953 heartbeat IPC: 3.04039 cumulative IPC: 2.79405 (Simulation time: 0 hr 3 min 57 sec) 
Heartbeat CPU  1 instructions:   37000000 cycles:   15122188 heartbeat IPC: 3.06335 cumulative IPC: 2.44674 (Simulation time: 0 hr 3 min 58 sec) 
Heartbeat CPU  2 instructions:   39000000 cycles:   15332656 heartbeat IPC: 2.53059 cumulative IPC: 2.54359 (Simulation time: 0 hr 4 min 1 sec) 
Heartbeat CPU  3 instructions:   43000002 cycles:   15493972 heartbeat IPC: 2.16441 cumulative IPC: 2.77527 (Simulation time: 0 hr 4 min 3 sec) 
Heartbeat CPU  1 instructions:   38000003 cycles:   15497160 heartbeat IPC: 2.66687 cumulative IPC: 2.45206 (Simulation time: 0 hr 4 min 3 sec) 
Heartbeat CPU  2 instructions:   40000000 cycles:   15658706 heartbeat IPC: 3.06701 cumulative IPC: 2.55449 (Simulation time: 0 hr 4 min 5 sec) 
Heartbeat CPU  0 instructions:   42000001 cycles:   15694626 heartbeat IPC: 1.46450 cumulative IPC: 2.67608 (Simulation time: 0 hr 4 min 6 sec) 
Heartbeat CPU  3 instructions:   44000000 cycles:   15835984 heartbeat IPC: 2.92387 cumulative IPC: 2.77848 (Simulation time: 0 hr 4 min 8 sec) 
Heartbeat CPU  2 instructions:   41000001 cycles:   15984736 heartbeat IPC: 3.06721 cumulative IPC: 2.56495 (Simulation time: 0 hr 4 min 10 sec) 
Heartbeat CPU  1 instructions:   39000002 cycles:   16004303 heartbeat IPC: 1.97183 cumulative IPC: 2.43684 (Simulation time: 0 hr 4 min 11 sec) 
Heartbeat CPU  0 instructions:   43000000 cycles:   16083221 heartbeat IPC: 2.57337 cumulative IPC: 2.67359 (Simulation time: 0 hr 4 min 12 sec) 
Heartbeat CPU  3 instructions:   45000001 cycles:   16164431 heartbeat IPC: 3.04463 cumulative IPC: 2.78389 (Simulation time: 0 hr 4 min 14 sec) 
Heartbeat CPU  2 instructions:   42000003 cycles:   16302222 heartbeat IPC: 3.14975 cumulative IPC: 2.57634 (Simulation time: 0 hr 4 min 16 sec) 
Heartbeat CPU  1 instructions:   40000000 cycles:   16391597 heartbeat IPC: 2.58201 cumulative IPC: 2.44027 (Simulation time: 0 hr 4 min 17 sec) 
Heartbeat CPU  0 instructions:   44000000 cycles:   16453016 heartbeat IPC: 2.70420 cumulative IPC: 2.67428 (Simulation time: 0 hr 4 min 18 sec) 
Heartbeat CPU  3 instructions:   46000003 cycles:   16508670 heartbeat IPC: 2.90496 cumulative IPC: 2.78641 (Simulation time: 0 hr 4 min 19 sec) 
Heartbeat CPU  2 instructions:   43000001 cycles:   16630744 heartbeat IPC: 3.04393 cumulative IPC: 2.58557 (Simulation time: 0 hr 4 min 22 sec) 
Heartbeat CPU  1 instructions:   41000003 cycles:   16718827 heartbeat IPC: 3.05596 cumulative IPC: 2.45233 (Simulation time: 0 hr 4 min 23 sec) 
Heartbeat CPU  3 instructions:   47000000 cycles:   16828159 heartbeat IPC: 3.12999 cumulative IPC: 2.79294 (Simulation time: 0 hr 4 min 25 sec) 
Heartbeat CPU  0 instructions:   45000000 cycles:   16909862 heartbeat IPC: 2.18892 cumulative IPC: 2.66117 (Simulation time: 0 hr 4 min 26 sec) 
Heartbeat CPU  2 instructions:   44000000 cycles:   16954093 heartbeat IPC: 3.09263 cumulative IPC: 2.59524 (Simulation time: 0 hr 4 min 27 sec) 
Heartbeat CPU  3 instructions:   48000000 cycles:   17155638 heartbeat IPC: 3.05363 cumulative IPC: 2.79791 (Simulation time: 0 hr 4 min 30 sec) 
Heartbeat CPU  1 instructions:   42000002 cycles:   17193989 heartbeat IPC: 2.10454 cumulative IPC: 2.44271 (Simulation time: 0 hr 4 min 30 sec) 
Heartbeat CPU  0 instructions:   46000001 cycles:   17357284 heartbeat IPC: 2.23503 cumulative IPC: 2.65018 (Simulation time: 0 hr 4 min 33 sec) 
Heartbeat CPU  2 instructions:   45000000 cycles:   17365208 heartbeat IPC: 2.43241 cumulative IPC: 2.59139 (Simulation time: 0 hr 4 min 33 sec) 
Heartbeat CPU  3 instructions:   49000003 cycles:   17563405 heartbeat IPC: 2.45239 cumulative IPC: 2.78989 (Simulation time: 0 hr 4 min 35 sec) 
Heartbeat CPU  0 instructions:   47000000 cycles:   17684821 heartbeat IPC: 3.05309 cumulative IPC: 2.65765 (Simulation time: 0 hr 4 min 37 sec) 
Heartbeat CPU  1 instructions:   43000000 cycles:   17777236 heartbeat IPC: 1.71454 cumulative IPC: 2.41882 (Simulation time: 0 hr 4 min 38 sec) 
Heartbeat CPU  3 instructions:   50000003 cycles:   17874947 heartbeat IPC: 3.20984 cumulative IPC: 2.79721 (Simulation time: 0 hr 4 min 40 sec) 
Heartbeat CPU  2 instructions:   46000002 cycles:   17898798 heartbeat IPC: 1.87410 cumulative IPC: 2.57001 (Simulation time: 0 hr 4 min 41 sec) 
Heartbeat CPU  0 instructions:   48000000 cycles:   18010230 heartbeat IPC: 3.07306 cumulative IPC: 2.66515 (Simulation time: 0 hr 4 min 43 sec) 
Heartbeat CPU  1 instructions:   44000000 cycles:   18125739 heartbeat IPC: 2.86942 cumulative IPC: 2.42749 (Simulation time: 0 hr 4 min 44 sec) 
Heartbeat CPU  3 instructions:   51000003 cycles:   18198223 heartbeat IPC: 3.09333 cumulative IPC: 0.05495 (Simulation time: 0 hr 4 min 45 sec) 
Heartbeat CPU  0 instructions:   49000003 cycles:   18336210 heartbeat IPC: 3.06768 cumulative IPC: 2.67231 (Simulation time: 0 hr 4 min 47 sec) 
Heartbeat CPU  1 instructions:   45000000 cycles:   18451097 heartbeat IPC: 3.07354 cumulative IPC: 2.43888 (Simulation time: 0 hr 4 min 49 sec) 
Heartbeat CPU  2 instructions:   47000002 cycles:   18454223 heartbeat IPC: 1.80042 cumulative IPC: 2.54684 (Simulation time: 0 hr 4 min 49 sec) 
Heartbeat CPU  3 instructions:   52000000 cycles:   18629264 heartbeat IPC: 2.31996 cumulative IPC: 0.10736 (Simulation time: 0 hr 4 min 52 sec) 
Heartbeat CPU  0 instructions:   50000002 cycles:   18647191 heartbeat IPC: 3.21563 cumulative IPC: 2.68137 (Simulation time: 0 hr 4 min 53 sec) 
Heartbeat CPU  1 instructions:   46000002 cycles:   18802652 heartbeat IPC: 2.84451 cumulative IPC: 2.44646 (Simulation time: 0 hr 4 min 55 sec) 
Heartbeat CPU  2 instructions:   48000000 cycles:   18857882 heartbeat IPC: 2.47733 cumulative IPC: 2.54535 (Simulation time: 0 hr 4 min 56 sec) 
Heartbeat CPU  0 instructions:   51000001 cycles:   18964192 heartbeat IPC: 3.15456 cumulative IPC: 0.05273 (Simulation time: 0 hr 4 min 58 sec) 
Heartbeat CPU  3 instructions:   53000003 cycles:   19073447 heartbeat IPC: 2.25133 cumulative IPC: 0.15729 (Simulation time: 0 hr 5 min 0 sec) 
Heartbeat CPU  1 instructions:   47000003 cycles:   19152669 heartbeat IPC: 2.85701 cumulative IPC: 2.45397 (Simulation time: 0 hr 5 min 1 sec) 
Heartbeat CPU  2 instructions:   49000000 cycles:   19193693 heartbeat IPC: 2.97787 cumulative IPC: 2.55292 (Simulation time: 0 hr 5 min 2 sec) 
Heartbeat CPU  0 instructions:   52000000 cycles:   19290495 heartbeat IPC: 3.06463 cumulative IPC: 0.10368 (Simulation time: 0 hr 5 min 3 sec) 
Heartbeat CPU  3 instructions:   54000000 cycles:   19457729 heartbeat IPC: 2.60225 cumulative IPC: 0.20557 (Simulation time: 0 hr 5 min 6 sec) 
Heartbeat CPU  1 instructions:   48000000 cycles:   19481027 heartbeat IPC: 3.04545 cumulative IPC: 2.46394 (Simulation time: 0 hr 5 min 7 sec) 
Heartbeat CPU  2 instructions:   50000002 cycles:   19554341 heartbeat IPC: 2.77279 cumulative IPC: 2.55698 (Simulation time: 0 hr 5 min 8 sec) 
Heartbeat CPU  0 instructions:   53000001 cycles:   19667538 heartbeat IPC: 2.65222 cumulative IPC: 0.15254 (Simulation time: 0 hr 5 min 10 sec) 
Heartbeat CPU  3 instructions:   55000000 cycles:   19795969 heartbeat IPC: 2.95648 cumulative IPC: 0.25258 (Simulation time: 0 hr 5 min 12 sec) 
Heartbeat CPU  2 instructions:   51000000 cycles:   19879310 heartbeat IPC: 3.07721 cumulative IPC: 0.05030 (Simulation time: 0 hr 5 min 13 sec) 
Heartbeat CPU  1 instructions:   49000003 cycles:   20109197 heartbeat IPC: 1.59193 cumulative IPC: 2.43670 (Simulation time: 0 hr 5 min 16 sec) 
Heartbeat CPU  3 instructions:   56000000 cycles:   20126018 heartbeat IPC: 3.02985 cumulative IPC: 0.29812 (Simulation time: 0 hr 5 min 16 sec) 
Heartbeat CPU  0 instructions:   54000001 cycles:   20154816 heartbeat IPC: 2.05222 cumulative IPC: 0.19846 (Simulation time: 0 hr 5 min 16 sec) 
Heartbeat CPU  2 instructions:   52000000 cycles:   20314129 heartbeat IPC: 2.29981 cumulative IPC: 0.09845 (Simulation time: 0 hr 5 min 18 sec) 
Heartbeat CPU  3 instructions:   57000001 cycles:   20456740 heartbeat IPC: 3.02369 cumulative IPC: 0.34219 (Simulation time: 0 hr 5 min 20 sec) 
Heartbeat CPU  1 instructions:   50000003 cycles:   20544041 heartbeat IPC: 2.29968 cumulative IPC: 2.43380 (Simulation time: 0 hr 5 min 22 sec) 

Warmup complete CPU  0 instructions:   54740475 cycles:   20544040 (Simulation time: 0 hr 5 min 22 sec) 
Warmup complete CPU  1 instructions:   50000003 cycles:   20544041 (Simulation time: 0 hr 5 min 22 sec) 
Warmup complete CPU  2 instructions:   52258985 cycles:   20544040 (Simulation time: 0 hr 5 min 22 sec) 
Warmup complete CPU  3 instructions:   57268792 cycles:   20544040 (Simulation time: 0 hr 5 min 22 sec) 

Heartbeat CPU  0 instructions:   55000000 cycles:   21287701 heartbeat IPC: 0.88270 cumulative IPC: 0.34898 (Simulation time: 0 hr 5 min 24 sec) 
Heartbeat CPU  3 instructions:   58000001 cycles:   22456640 heartbeat IPC: 0.50002 cumulative IPC: 0.38231 (Simulation time: 0 hr 5 min 27 sec) 
Heartbeat CPU  1 instructions:   51000000 cycles:   23170274 heartbeat IPC: 0.38077 cumulative IPC: 0.38077 (Simulation time: 0 hr 5 min 29 sec) 
Heartbeat CPU  2 instructions:   53000001 cycles:   23341298 heartbeat IPC: 0.33034 cumulative IPC: 0.26491 (Simulation time: 0 hr 5 min 30 sec) 
Heartbeat CPU  0 instructions:   56000000 cycles:   24298303 heartbeat IPC: 0.33216 cumulative IPC: 0.33549 (Simulation time: 0 hr 5 min 32 sec) 
Heartbeat CPU  3 instructions:   59000002 cycles:   25108730 heartbeat IPC: 0.37706 cumulative IPC: 0.37926 (Simulation time: 0 hr 5 min 35 sec) 
Heartbeat CPU  2 instructions:   54000001 cycles:   25939695 heartbeat IPC: 0.38485 cumulative IPC: 0.32267 (Simulation time: 0 hr 5 min 37 sec) 
Heartbeat CPU  1 instructions:   52000000 cycles:   26996818 heartbeat IPC: 0.26133 cumulative IPC: 0.30994 (Simulation time: 0 hr 5 min 40 sec) 
Heartbeat CPU  0 instructions:   57000000 cycles:   27229442 heartbeat IPC: 0.34116 cumulative IPC: 0.33798 (Simulation time: 0 hr 5 min 41 sec) 
Heartbeat CPU  3 instructions:   60000000 cycles:   27728971 heartbeat IPC: 0.38164 cumulative IPC: 0.38013 (Simulation time: 0 hr 5 min 42 sec) 
Heartbeat CPU  2 instructions:   55000003 cycles:   28167034 heartbeat IPC: 0.44897 cumulative IPC: 0.35957 (Simulation time: 0 hr 5 min 43 sec) 
Heartbeat CPU  1 instructions:   53000003 cycles:   29514107 heartbeat IPC: 0.39725 cumulative IPC: 0.33445 (Simulation time: 0 hr 5 min 47 sec) 
Heartbeat CPU  0 instructions:   58000000 cycles:   30192394 heartbeat IPC: 0.33750 cumulative IPC: 0.33783 (Simulation time: 0 hr 5 min 49 sec) 
Heartbeat CPU  2 instructions:   56000000 cycles:   30917351 heartbeat IPC: 0.36359 cumulative IPC: 0.36064 (Simulation time: 0 hr 5 min 51 sec) 
Heartbeat CPU  1 instructions:   54000000 cycles:   32153030 heartbeat IPC: 0.37894 cumulative IPC: 0.34456 (Simulation time: 0 hr 5 min 54 sec) 
Heartbeat CPU  3 instructions:   61000002 cycles:   32569835 heartbeat IPC: 0.20658 cumulative IPC: 0.31027 (Simulation time: 0 hr 5 min 55 sec) 
Heartbeat CPU  0 instructions:   59000003 cycles:   33129882 heartbeat IPC: 0.34043 cumulative IPC: 0.33844 (Simulation time: 0 hr 5 min 57 sec) 
Heartbeat CPU  2 instructions:   57000003 cycles:   33930184 heartbeat IPC: 0.33191 cumulative IPC: 0.35417 (Simulation time: 0 hr 5 min 59 sec) 
Heartbeat CPU  1 instructions:   55000001 cycles:   34197321 heartbeat IPC: 0.48917 cumulative IPC: 0.36621 (Simulation time: 0 hr 6 min 0 sec) 
Heartbeat CPU  0 instructions:   60000000 cycles:   36047770 heartbeat IPC: 0.34271 cumulative IPC: 0.33924 (Simulation time: 0 hr 6 min 5 sec) 
Heartbeat CPU  2 instructions:   58000002 cycles:   36601168 heartbeat IPC: 0.37439 cumulative IPC: 0.35754 (Simulation time: 0 hr 6 min 7 sec) 
Heartbeat CPU  1 instructions:   56000000 cycles:   36662801 heartbeat IPC: 0.40560 cumulative IPC: 0.37224 (Simulation time: 0 hr 6 min 7 sec) 
Heartbeat CPU  3 instructions:   62000002 cycles:   36671453 heartbeat IPC: 0.24381 cumulative IPC: 0.29336 (Simulation time: 0 hr 6 min 7 sec) 
Heartbeat CPU  1 instructions:   57000000 cycles:   39124788 heartbeat IPC: 0.40618 cumulative IPC: 0.37673 (Simulation time: 0 hr 6 min 13 sec) 
Heartbeat CPU  2 instructions:   59000001 cycles:   39174848 heartbeat IPC: 0.38855 cumulative IPC: 0.36182 (Simulation time: 0 hr 6 min 13 sec) 
Heartbeat CPU  0 instructions:   61000003 cycles:   39219694 heartbeat IPC: 0.31527 cumulative IPC: 0.33517 (Simulation time: 0 hr 6 min 14 sec) 
Heartbeat CPU  1 instructions:   58000000 cycles:   42036357 heartbeat IPC: 0.34346 cumulative IPC: 0.37223 (Simulation time: 0 hr 6 min 21 sec) 
Heartbeat CPU  2 instructions:   60000000 cycles:   42141542 heartbeat IPC: 0.33708 cumulative IPC: 0.35842 (Simulation time: 0 hr 6 min 21 sec) 
Heartbeat CPU  0 instructions:   62000002 cycles:   42381669 heartbeat IPC: 0.31626 cumulative IPC: 0.33243 (Simulation time: 0 hr 6 min 21 sec) 
Heartbeat CPU  3 instructions:   63000001 cycles:   43246830 heartbeat IPC: 0.15208 cumulative IPC: 0.25245 (Simulation time: 0 hr 6 min 24 sec) 
Heartbeat CPU  1 instructions:   59000003 cycles:   44497285 heartbeat IPC: 0.40635 cumulative IPC: 0.37573 (Simulation time: 0 hr 6 min 27 sec) 
Heartbeat CPU  2 instructions:   61000000 cycles:   44684331 heartbeat IPC: 0.39327 cumulative IPC: 0.36209 (Simulation time: 0 hr 6 min 27 sec) 
Heartbeat CPU  0 instructions:   63000002 cycles:   45171824 heartbeat IPC: 0.35840 cumulative IPC: 0.33537 (Simulation time: 0 hr 6 min 29 sec) 
Heartbeat CPU  1 instructions:   60000000 cycles:   46976543 heartbeat IPC: 0.40335 cumulative IPC: 0.37832 (Simulation time: 0 hr 6 min 34 sec) 
Heartbeat CPU  2 instructions:   62000001 cycles:   47181637 heartbeat IPC: 0.40043 cumulative IPC: 0.36569 (Simulation time: 0 hr 6 min 35 sec) 
Heartbeat CPU  3 instructions:   64000000 cycles:   47601525 heartbeat IPC: 0.22964 cumulative IPC: 0.24877 (Simulation time: 0 hr 6 min 36 sec) 
Heartbeat CPU  0 instructions:   64000000 cycles:   48026705 heartbeat IPC: 0.35028 cumulative IPC: 0.33692 (Simulation time: 0 hr 6 min 37 sec) 
Heartbeat CPU  1 instructions:   61000002 cycles:   49741943 heartbeat IPC: 0.36161 cumulative IPC: 0.37674 (Simulation time: 0 hr 6 min 42 sec) 
Heartbeat CPU  2 instructions:   63000000 cycles:   49817899 heartbeat IPC: 0.37932 cumulative IPC: 0.36691 (Simulation time: 0 hr 6 min 42 sec) 
Heartbeat CPU  0 instructions:   65000000 cycles:   50490500 heartbeat IPC: 0.40588 cumulative IPC: 0.34260 (Simulation time: 0 hr 6 min 44 sec) 
Heartbeat CPU  3 instructions:   65000001 cycles:   50777092 heartbeat IPC: 0.31490 cumulative IPC: 0.25572 (Simulation time: 0 hr 6 min 45 sec) 
Heartbeat CPU  2 instructions:   64000000 cycles:   52684949 heartbeat IPC: 0.34879 cumulative IPC: 0.36530 (Simulation time: 0 hr 6 min 50 sec) 
Heartbeat CPU  1 instructions:   62000001 cycles:   52919423 heartbeat IPC: 0.31471 cumulative IPC: 0.37065 (Simulation time: 0 hr 6 min 51 sec) 
Heartbeat CPU  0 instructions:   66000000 cycles:   53755576 heartbeat IPC: 0.30627 cumulative IPC: 0.33902 (Simulation time: 0 hr 6 min 53 sec) 
Heartbeat CPU  3 instructions:   66000000 cycles:   53839716 heartbeat IPC: 0.32652 cumulative IPC: 0.26223 (Simulation time: 0 hr 6 min 53 sec) 
Heartbeat CPU  2 instructions:   65000003 cycles:   55687441 heartbeat IPC: 0.33306 cumulative IPC: 0.36254 (Simulation time: 0 hr 6 min 58 sec) 
Heartbeat CPU  0 instructions:   67000002 cycles:   56534337 heartbeat IPC: 0.35987 cumulative IPC: 0.34063 (Simulation time: 0 hr 7 min 1 sec) 
Heartbeat CPU  1 instructions:   63000000 cycles:   56568850 heartbeat IPC: 0.27402 cumulative IPC: 0.36086 (Simulation time: 0 hr 7 min 1 sec) 
Heartbeat CPU  3 instructions:   67000001 cycles:   57307851 heartbeat IPC: 0.28834 cumulative IPC: 0.26470 (Simulation time: 0 hr 7 min 3 sec) 
Heartbeat CPU  2 instructions:   66000001 cycles:   58223472 heartbeat IPC: 0.39432 cumulative IPC: 0.36468 (Simulation time: 0 hr 7 min 5 sec) 
Heartbeat CPU  0 instructions:   68000000 cycles:   59706731 heartbeat IPC: 0.31522 cumulative IPC: 0.33858 (Simulation time: 0 hr 7 min 10 sec) 
Heartbeat CPU  1 instructions:   64000000 cycles:   59925793 heartbeat IPC: 0.29789 cumulative IPC: 0.35549 (Simulation time: 0 hr 7 min 11 sec) 
Heartbeat CPU  3 instructions:   68000000 cycles:   59973943 heartbeat IPC: 0.37508 cumulative IPC: 0.27216 (Simulation time: 0 hr 7 min 11 sec) 
Heartbeat CPU  2 instructions:   67000001 cycles:   60416895 heartbeat IPC: 0.45591 cumulative IPC: 0.36970 (Simulation time: 0 hr 7 min 12 sec) 
Heartbeat CPU  3 instructions:   69000000 cycles:   62308715 heartbeat IPC: 0.42831 cumulative IPC: 0.28089 (Simulation time: 0 hr 7 min 18 sec) 
Heartbeat CPU  0 instructions:   69000002 cycles:   62383660 heartbeat IPC: 0.37356 cumulative IPC: 0.34081 (Simulation time: 0 hr 7 min 18 sec) 
Heartbeat CPU  1 instructions:   65000001 cycles:   62490237 heartbeat IPC: 0.38995 cumulative IPC: 0.35760 (Simulation time: 0 hr 7 min 19 sec) 
Heartbeat CPU  2 instructions:   68000000 cycles:   62981451 heartbeat IPC: 0.38993 cumulative IPC: 0.37092 (Simulation time: 0 hr 7 min 20 sec) 
Heartbeat CPU  0 instructions:   70000001 cycles:   64808871 heartbeat IPC: 0.41233 cumulative IPC: 0.34473 (Simulation time: 0 hr 7 min 26 sec) 
Heartbeat CPU  3 instructions:   70000003 cycles:   64895109 heartbeat IPC: 0.38664 cumulative IPC: 0.28706 (Simulation time: 0 hr 7 min 26 sec) 
Heartbeat CPU  1 instructions:   66000000 cycles:   65311337 heartbeat IPC: 0.35447 cumulative IPC: 0.35740 (Simulation time: 0 hr 7 min 27 sec) 
Heartbeat CPU  2 instructions:   69000002 cycles:   66236701 heartbeat IPC: 0.30720 cumulative IPC: 0.36638 (Simulation time: 0 hr 7 min 30 sec) 
Heartbeat CPU  0 instructions:   71000002 cycles:   67167064 heartbeat IPC: 0.42405 cumulative IPC: 0.34874 (Simulation time: 0 hr 7 min 33 sec) 
Heartbeat CPU  1 instructions:   67000003 cycles:   67742851 heartbeat IPC: 0.41127 cumulative IPC: 0.36018 (Simulation time: 0 hr 7 min 35 sec) 
Heartbeat CPU  3 instructions:   71000001 cycles:   67756584 heartbeat IPC: 0.34947 cumulative IPC: 0.29084 (Simulation time: 0 hr 7 min 35 sec) 
Heartbeat CPU  2 instructions:   70000003 cycles:   68613160 heartbeat IPC: 0.42079 cumulative IPC: 0.36907 (Simulation time: 0 hr 7 min 38 sec) 
Heartbeat CPU  0 instructions:   72000000 cycles:   69896401 heartbeat IPC: 0.36639 cumulative IPC: 0.34972 (Simulation time: 0 hr 7 min 41 sec) 
Heartbeat CPU  3 instructions:   72000000 cycles:   70518041 heartbeat IPC: 0.36213 cumulative IPC: 0.29478 (Simulation time: 0 hr 7 min 43 sec) 
Heartbeat CPU  1 instructions:   68000000 cycles:   70526537 heartbeat IPC: 0.35923 cumulative IPC: 0.36013 (Simulation time: 0 hr 7 min 43 sec) 
Heartbeat CPU  2 instructions:   71000003 cycles:   71008182 heartbeat IPC: 0.41753 cumulative IPC: 0.37137 (Simulation time: 0 hr 7 min 45 sec) 
Heartbeat CPU  0 instructions:   73000000 cycles:   72887238 heartbeat IPC: 0.33435 cumulative IPC: 0.34884 (Simulation time: 0 hr 7 min 50 sec) 
Heartbeat CPU  2 instructions:   72000000 cycles:   73243061 heartbeat IPC: 0.44745 cumulative IPC: 0.37460 (Simulation time: 0 hr 7 min 51 sec) 
Heartbeat CPU  1 instructions:   69000001 cycles:   73466157 heartbeat IPC: 0.34018 cumulative IPC: 0.35902 (Simulation time: 0 hr 7 min 52 sec) 
Heartbeat CPU  3 instructions:   73000002 cycles:   73613034 heartbeat IPC: 0.32310 cumulative IPC: 0.29643 (Simulation time: 0 hr 7 min 52 sec) 
Heartbeat CPU  0 instructions:   74000002 cycles:   75463492 heartbeat IPC: 0.38816 cumulative IPC: 0.35069 (Simulation time: 0 hr 7 min 58 sec) 
Heartbeat CPU  1 instructions:   70000003 cycles:   75958498 heartbeat IPC: 0.40123 cumulative IPC: 0.36092 (Simulation time: 0 hr 7 min 59 sec) 
Heartbeat CPU  2 instructions:   73000000 cycles:   76268584 heartbeat IPC: 0.33052 cumulative IPC: 0.37221 (Simulation time: 0 hr 8 min 0 sec) 
Heartbeat CPU  3 instructions:   74000003 cycles:   76334994 heartbeat IPC: 0.36738 cumulative IPC: 0.29989 (Simulation time: 0 hr 8 min 1 sec) 
Heartbeat CPU  0 instructions:   75000002 cycles:   77803096 heartbeat IPC: 0.42742 cumulative IPC: 0.35382 (Simulation time: 0 hr 8 min 5 sec) 
Heartbeat CPU  2 instructions:   74000001 cycles:   78829550 heartbeat IPC: 0.39048 cumulative IPC: 0.37301 (Simulation time: 0 hr 8 min 8 sec) 
Heartbeat CPU  1 instructions:   71000002 cycles:   78978588 heartbeat IPC: 0.33112 cumulative IPC: 0.35938 (Simulation time: 0 hr 8 min 9 sec) 
Heartbeat CPU  0 instructions:   76000000 cycles:   79814818 heartbeat IPC: 0.49709 cumulative IPC: 0.35868 (Simulation time: 0 hr 8 min 11 sec) 
Heartbeat CPU  3 instructions:   75000002 cycles:   79816134 heartbeat IPC: 0.28726 cumulative IPC: 0.29915 (Simulation time: 0 hr 8 min 11 sec) 
Heartbeat CPU  2 instructions:   75000002 cycles:   81349788 heartbeat IPC: 0.39679 cumulative IPC: 0.37399 (Simulation time: 0 hr 8 min 16 sec) 
Heartbeat CPU  1 instructions:   72000000 cycles:   81690238 heartbeat IPC: 0.36878 cumulative IPC: 0.35979 (Simulation time: 0 hr 8 min 17 sec) 
Heartbeat CPU  3 instructions:   76000000 cycles:   82068341 heartbeat IPC: 0.44401 cumulative IPC: 0.30445 (Simulation time: 0 hr 8 min 18 sec) 
Heartbeat CPU  0 instructions:   77000001 cycles:   82737656 heartbeat IPC: 0.34213 cumulative IPC: 0.35791 (Simulation time: 0 hr 8 min 20 sec) 
Heartbeat CPU  2 instructions:   76000000 cycles:   83291464 heartbeat IPC: 0.51502 cumulative IPC: 0.37836 (Simulation time: 0 hr 8 min 22 sec) 
Heartbeat CPU  1 instructions:   73000003 cycles:   84132186 heartbeat IPC: 0.40951 cumulative IPC: 0.36170 (Simulation time: 0 hr 8 min 25 sec) 
Heartbeat CPU  3 instructions:   77000002 cycles:   84905788 heartbeat IPC: 0.35243 cumulative IPC: 0.30657 (Simulation time: 0 hr 8 min 27 sec) 
Heartbeat CPU  0 instructions:   78000001 cycles:   85447329 heartbeat IPC: 0.36905 cumulative IPC: 0.35837 (Simulation time: 0 hr 8 min 29 sec) 
Heartbeat CPU  2 instructions:   77000000 cycles:   85733931 heartbeat IPC: 0.40942 cumulative IPC: 0.37952 (Simulation time: 0 hr 8 min 30 sec) 
Heartbeat CPU  1 instructions:   74000003 cycles:   86597382 heartbeat IPC: 0.40565 cumulative IPC: 0.36334 (Simulation time: 0 hr 8 min 32 sec) 
Heartbeat CPU  3 instructions:   78000003 cycles:   87099965 heartbeat IPC: 0.45575 cumulative IPC: 0.31149 (Simulation time: 0 hr 8 min 33 sec) 
Heartbeat CPU  0 instructions:   79000000 cycles:   88153829 heartbeat IPC: 0.36948 cumulative IPC: 0.35882 (Simulation time: 0 hr 8 min 37 sec) 
Heartbeat CPU  2 instructions:   78000001 cycles:   89073901 heartbeat IPC: 0.29940 cumulative IPC: 0.37562 (Simulation time: 0 hr 8 min 40 sec) 
Heartbeat CPU  1 instructions:   75000002 cycles:   89513766 heartbeat IPC: 0.34289 cumulative IPC: 0.36248 (Simulation time: 0 hr 8 min 41 sec) 
Heartbeat CPU  3 instructions:   79000003 cycles:   89802369 heartbeat IPC: 0.37004 cumulative IPC: 0.31377 (Simulation time: 0 hr 8 min 42 sec) 
Heartbeat CPU  0 instructions:   80000000 cycles:   91193873 heartbeat IPC: 0.32894 cumulative IPC: 0.35753 (Simulation time: 0 hr 8 min 46 sec) 
Heartbeat CPU  2 instructions:   79000001 cycles:   91673327 heartbeat IPC: 0.38470 cumulative IPC: 0.37595 (Simulation time: 0 hr 8 min 47 sec) 
Heartbeat CPU  3 instructions:   80000000 cycles:   92035039 heartbeat IPC: 0.44789 cumulative IPC: 0.31796 (Simulation time: 0 hr 8 min 48 sec) 
Heartbeat CPU  1 instructions:   76000000 cycles:   92766661 heartbeat IPC: 0.30742 cumulative IPC: 0.36000 (Simulation time: 0 hr 8 min 51 sec) 
Heartbeat CPU  0 instructions:   81000001 cycles:   93484807 heartbeat IPC: 0.43650 cumulative IPC: 0.36001 (Simulation time: 0 hr 8 min 53 sec) 
Heartbeat CPU  2 instructions:   80000000 cycles:   94347891 heartbeat IPC: 0.37389 cumulative IPC: 0.37587 (Simulation time: 0 hr 8 min 56 sec) 
Heartbeat CPU  3 instructions:   81000000 cycles:   94782915 heartbeat IPC: 0.36392 cumulative IPC: 0.31966 (Simulation time: 0 hr 8 min 57 sec) 
Heartbeat CPU  1 instructions:   77000003 cycles:   95786427 heartbeat IPC: 0.33115 cumulative IPC: 0.35884 (Simulation time: 0 hr 9 min 0 sec) 
Heartbeat CPU  0 instructions:   82000003 cycles:   96501193 heartbeat IPC: 0.33152 cumulative IPC: 0.35888 (Simulation time: 0 hr 9 min 1 sec) 
Heartbeat CPU  3 instructions:   82000001 cycles:   97252398 heartbeat IPC: 0.40494 cumulative IPC: 0.32241 (Simulation time: 0 hr 9 min 4 sec) 
Heartbeat CPU  2 instructions:   81000001 cycles:   97541325 heartbeat IPC: 0.31314 cumulative IPC: 0.37327 (Simulation time: 0 hr 9 min 5 sec) 
Heartbeat CPU  1 instructions:   78000001 cycles:   98703949 heartbeat IPC: 0.34276 cumulative IPC: 0.35824 (Simulation time: 0 hr 9 min 9 sec) 
Heartbeat CPU  0 instructions:   83000002 cycles:   98823781 heartbeat IPC: 0.43055 cumulative IPC: 0.36101 (Simulation time: 0 hr 9 min 9 sec) 
Heartbeat CPU  2 instructions:   82000003 cycles:   99749838 heartbeat IPC: 0.45279 cumulative IPC: 0.37549 (Simulation time: 0 hr 9 min 11 sec) 
Heartbeat CPU  1 instructions:   79000002 cycles:  100912176 heartbeat IPC: 0.45285 cumulative IPC: 0.36084 (Simulation time: 0 hr 9 min 15 sec) 
Heartbeat CPU  3 instructions:   83000002 cycles:  101589303 heartbeat IPC: 0.23058 cumulative IPC: 0.31749 (Simulation time: 0 hr 9 min 16 sec) 
Heartbeat CPU  0 instructions:   84000000 cycles:  101749600 heartbeat IPC: 0.34178 cumulative IPC: 0.36031 (Simulation time: 0 hr 9 min 17 sec) 
Heartbeat CPU  2 instructions:   83000003 cycles:  102120621 heartbeat IPC: 0.42180 cumulative IPC: 0.37684 (Simulation time: 0 hr 9 min 18 sec) 
Heartbeat CPU  1 instructions:   80000000 cycles:  103626505 heartbeat IPC: 0.36841 cumulative IPC: 0.36109 (Simulation time: 0 hr 9 min 23 sec) 
Heartbeat CPU  2 instructions:   84000000 cycles:  104497673 heartbeat IPC: 0.42069 cumulative IPC: 0.37808 (Simulation time: 0 hr 9 min 25 sec) 
Heartbeat CPU  3 instructions:   84000000 cycles:  104583283 heartbeat IPC: 0.33400 cumulative IPC: 0.31808 (Simulation time: 0 hr 9 min 25 sec) 
Heartbeat CPU  0 instructions:   85000001 cycles:  104676766 heartbeat IPC: 0.34163 cumulative IPC: 0.35966 (Simulation time: 0 hr 9 min 26 sec) 
Heartbeat CPU  3 instructions:   85000000 cycles:  106774303 heartbeat IPC: 0.45641 cumulative IPC: 0.32159 (Simulation time: 0 hr 9 min 32 sec) 
Heartbeat CPU  1 instructions:   81000002 cycles:  107123093 heartbeat IPC: 0.28599 cumulative IPC: 0.35805 (Simulation time: 0 hr 9 min 33 sec) 
Heartbeat CPU  0 instructions:   86000002 cycles:  107205156 heartbeat IPC: 0.39551 cumulative IPC: 0.36071 (Simulation time: 0 hr 9 min 33 sec) 
Heartbeat CPU  2 instructions:   85000003 cycles:  107448463 heartbeat IPC: 0.33889 cumulative IPC: 0.37675 (Simulation time: 0 hr 9 min 34 sec) 
Heartbeat CPU  3 instructions:   86000000 cycles:  109497661 heartbeat IPC: 0.36719 cumulative IPC: 0.32299 (Simulation time: 0 hr 9 min 40 sec) 
Heartbeat CPU  1 instructions:   82000000 cycles:  109725300 heartbeat IPC: 0.38429 cumulative IPC: 0.35882 (Simulation time: 0 hr 9 min 41 sec) 
Heartbeat CPU  0 instructions:   87000000 cycles:  109729335 heartbeat IPC: 0.39617 cumulative IPC: 0.36171 (Simulation time: 0 hr 9 min 41 sec) 
Heartbeat CPU  2 instructions:   86000002 cycles:  109969480 heartbeat IPC: 0.39666 cumulative IPC: 0.37731 (Simulation time: 0 hr 9 min 42 sec) 
Heartbeat CPU  0 instructions:   88000000 cycles:  112165786 heartbeat IPC: 0.41043 cumulative IPC: 0.36301 (Simulation time: 0 hr 9 min 48 sec) 
Heartbeat CPU  3 instructions:   87000000 cycles:  112233008 heartbeat IPC: 0.36558 cumulative IPC: 0.32426 (Simulation time: 0 hr 9 min 48 sec) 
Heartbeat CPU  2 instructions:   87000000 cycles:  112479204 heartbeat IPC: 0.39845 cumulative IPC: 0.37789 (Simulation time: 0 hr 9 min 49 sec) 
Heartbeat CPU  0 instructions:   89000003 cycles:  114677233 heartbeat IPC: 0.39818 cumulative IPC: 0.36395 (Simulation time: 0 hr 9 min 55 sec) 
Heartbeat CPU  1 instructions:   83000003 cycles:  114916124 heartbeat IPC: 0.19265 cumulative IPC: 0.34968 (Simulation time: 0 hr 9 min 55 sec) 
Heartbeat CPU  2 instructions:   88000000 cycles:  114995617 heartbeat IPC: 0.39739 cumulative IPC: 0.37841 (Simulation time: 0 hr 9 min 56 sec) 
Heartbeat CPU  3 instructions:   88000000 cycles:  115001550 heartbeat IPC: 0.36120 cumulative IPC: 0.32534 (Simulation time: 0 hr 9 min 56 sec) 
Heartbeat CPU  2 instructions:   89000002 cycles:  117565001 heartbeat IPC: 0.38920 cumulative IPC: 0.37869 (Simulation time: 0 hr 10 min 3 sec) 
Heartbeat CPU  1 instructions:   84000000 cycles:  117663501 heartbeat IPC: 0.36398 cumulative IPC: 0.35008 (Simulation time: 0 hr 10 min 3 sec) 
Heartbeat CPU  0 instructions:   90000000 cycles:  117789597 heartbeat IPC: 0.32130 cumulative IPC: 0.36258 (Simulation time: 0 hr 10 min 3 sec) 
Heartbeat CPU  3 instructions:   89000000 cycles:  118092696 heartbeat IPC: 0.32350 cumulative IPC: 0.32529 (Simulation time: 0 hr 10 min 4 sec) 
Heartbeat CPU  2 instructions:   90000001 cycles:  119652968 heartbeat IPC: 0.47893 cumulative IPC: 0.38080 (Simulation time: 0 hr 10 min 9 sec) 
Heartbeat CPU  1 instructions:   85000001 cycles:  119967414 heartbeat IPC: 0.43404 cumulative IPC: 0.35203 (Simulation time: 0 hr 10 min 10 sec) 
Heartbeat CPU  0 instructions:   91000001 cycles:  120564840 heartbeat IPC: 0.36033 cumulative IPC: 0.36252 (Simulation time: 0 hr 10 min 12 sec) 
Heartbeat CPU  3 instructions:   90000003 cycles:  121076953 heartbeat IPC: 0.33509 cumulative IPC: 0.32558 (Simulation time: 0 hr 10 min 13 sec) 
Heartbeat CPU  0 instructions:   92000000 cycles:  123098740 heartbeat IPC: 0.39465 cumulative IPC: 0.36331 (Simulation time: 0 hr 10 min 18 sec) 
Heartbeat CPU  2 instructions:   91000003 cycles:  123176991 heartbeat IPC: 0.28377 cumulative IPC: 0.37747 (Simulation time: 0 hr 10 min 19 sec) 
Heartbeat CPU  3 instructions:   91000003 cycles:  123872409 heartbeat IPC: 0.35772 cumulative IPC: 0.32645 (Simulation time: 0 hr 10 min 20 sec) 
Heartbeat CPU  0 instructions:   93000002 cycles:  125575998 heartbeat IPC: 0.40367 cumulative IPC: 0.36427 (Simulation time: 0 hr 10 min 25 sec) 
Heartbeat CPU  2 instructions:   92000000 cycles:  125895394 heartbeat IPC: 0.36786 cumulative IPC: 0.37722 (Simulation time: 0 hr 10 min 25 sec) 
Heartbeat CPU  1 instructions:   86000001 cycles:  126178358 heartbeat IPC: 0.16101 cumulative IPC: 0.34080 (Simulation time: 0 hr 10 min 26 sec) 
Heartbeat CPU  3 instructions:   92000000 cycles:  126514898 heartbeat IPC: 0.37843 cumulative IPC: 0.32774 (Simulation time: 0 hr 10 min 27 sec) 
Heartbeat CPU  2 instructions:   93000001 cycles:  128204470 heartbeat IPC: 0.43307 cumulative IPC: 0.37842 (Simulation time: 0 hr 10 min 31 sec) 
Heartbeat CPU  0 instructions:   94000002 cycles:  128223259 heartbeat IPC: 0.37775 cumulative IPC: 0.36460 (Simulation time: 0 hr 10 min 31 sec) 
Heartbeat CPU  3 instructions:   93000001 cycles:  129824107 heartbeat IPC: 0.30219 cumulative IPC: 0.32697 (Simulation time: 0 hr 10 min 36 sec) 
Heartbeat CPU  0 instructions:   95000000 cycles:  130762901 heartbeat IPC: 0.39376 cumulative IPC: 0.36527 (Simulation time: 0 hr 10 min 38 sec) 
Heartbeat CPU  2 instructions:   94000003 cycles:  130895130 heartbeat IPC: 0.37166 cumulative IPC: 0.37826 (Simulation time: 0 hr 10 min 39 sec) 
Heartbeat CPU  1 instructions:   87000003 cycles:  132885292 heartbeat IPC: 0.14910 cumulative IPC: 0.32935 (Simulation time: 0 hr 10 min 43 sec) 
Heartbeat CPU  2 instructions:   95000002 cycles:  133313402 heartbeat IPC: 0.41352 cumulative IPC: 0.37901 (Simulation time: 0 hr 10 min 44 sec) 
Heartbeat CPU  3 instructions:   94000001 cycles:  133372867 heartbeat IPC: 0.28179 cumulative IPC: 0.32555 (Simulation time: 0 hr 10 min 45 sec) 
Heartbeat CPU  0 instructions:   96000000 cycles:  133609047 heartbeat IPC: 0.35135 cumulative IPC: 0.36492 (Simulation time: 0 hr 10 min 45 sec) 
Heartbeat CPU  3 instructions:   95000002 cycles:  135539320 heartbeat IPC: 0.46158 cumulative IPC: 0.32811 (Simulation time: 0 hr 10 min 51 sec) 
Heartbeat CPU  2 instructions:   96000000 cycles:  135878560 heartbeat IPC: 0.38984 cumulative IPC: 0.37925 (Simulation time: 0 hr 10 min 52 sec) 
Heartbeat CPU  0 instructions:   97000001 cycles:  136195724 heartbeat IPC: 0.38660 cumulative IPC: 0.36540 (Simulation time: 0 hr 10 min 52 sec) 
Heartbeat CPU  3 instructions:   96000000 cycles:  138083708 heartbeat IPC: 0.39302 cumulative IPC: 0.32952 (Simulation time: 0 hr 10 min 58 sec) 
Heartbeat CPU  0 instructions:   98000003 cycles:  138284519 heartbeat IPC: 0.47875 cumulative IPC: 0.36741 (Simulation time: 0 hr 10 min 58 sec) 
Heartbeat CPU  2 instructions:   97000003 cycles:  138458954 heartbeat IPC: 0.38754 cumulative IPC: 0.37943 (Simulation time: 0 hr 10 min 59 sec) 
Heartbeat CPU  1 instructions:   88000000 cycles:  139451277 heartbeat IPC: 0.15230 cumulative IPC: 0.31958 (Simulation time: 0 hr 11 min 1 sec) 
Heartbeat CPU  2 instructions:   98000002 cycles:  140602942 heartbeat IPC: 0.46642 cumulative IPC: 0.38099 (Simulation time: 0 hr 11 min 5 sec) 
Heartbeat CPU  0 instructions:   99000000 cycles:  141178663 heartbeat IPC: 0.34552 cumulative IPC: 0.36689 (Simulation time: 0 hr 11 min 6 sec) 
Heartbeat CPU  3 instructions:   97000003 cycles:  141506366 heartbeat IPC: 0.29217 cumulative IPC: 0.32846 (Simulation time: 0 hr 11 min 7 sec) 
Heartbeat CPU  1 instructions:   89000000 cycles:  142215641 heartbeat IPC: 0.36175 cumulative IPC: 0.32053 (Simulation time: 0 hr 11 min 9 sec) 
Heartbeat CPU  2 instructions:   99000000 cycles:  143535358 heartbeat IPC: 0.34102 cumulative IPC: 0.38004 (Simulation time: 0 hr 11 min 12 sec) 
*** Reached end of trace for Core: 0 Repeating trace: /data3/CASSANDRA/traces/cassandra_phase0_core0.trace.xz
Heartbeat CPU  0 instructions:  100000000 cycles:  143960085 heartbeat IPC: 0.35953 cumulative IPC: 0.36672 (Simulation time: 0 hr 11 min 13 sec) 
Heartbeat CPU  1 instructions:   90000003 cycles:  145296984 heartbeat IPC: 0.32453 cumulative IPC: 0.32063 (Simulation time: 0 hr 11 min 17 sec) 
Heartbeat CPU  3 instructions:   98000001 cycles:  145326663 heartbeat IPC: 0.26176 cumulative IPC: 0.32642 (Simulation time: 0 hr 11 min 17 sec) 
*** Reached end of trace for Core: 2 Repeating trace: /data3/CASSANDRA/traces/cassandra_phase0_core2.trace.xz
Heartbeat CPU  2 instructions:  100000000 cycles:  146366894 heartbeat IPC: 0.35317 cumulative IPC: 0.37943 (Simulation time: 0 hr 11 min 20 sec) 
Heartbeat CPU  1 instructions:   91000002 cycles:  147568645 heartbeat IPC: 0.44021 cumulative IPC: 0.32277 (Simulation time: 0 hr 11 min 23 sec) 
Heartbeat CPU  3 instructions:   99000002 cycles:  147965497 heartbeat IPC: 0.37896 cumulative IPC: 0.32751 (Simulation time: 0 hr 11 min 24 sec) 
Heartbeat CPU  0 instructions:  101000000 cycles:  148032594 heartbeat IPC: 0.24555 cumulative IPC: 0.36285 (Simulation time: 0 hr 11 min 24 sec) 
Heartbeat CPU  2 instructions:  101000003 cycles:  149623586 heartbeat IPC: 0.30706 cumulative IPC: 0.37760 (Simulation time: 0 hr 11 min 29 sec) 
Heartbeat CPU  0 instructions:  102000002 cycles:  150469686 heartbeat IPC: 0.41033 cumulative IPC: 0.36374 (Simulation time: 0 hr 11 min 32 sec) 
*** Reached end of trace for Core: 3 Repeating trace: /data3/CASSANDRA/traces/cassandra_phase0_core3.trace.xz
Heartbeat CPU  3 instructions:  100000000 cycles:  150636237 heartbeat IPC: 0.37443 cumulative IPC: 0.32847 (Simulation time: 0 hr 11 min 32 sec) 
Heartbeat CPU  2 instructions:  102000003 cycles:  151874202 heartbeat IPC: 0.44432 cumulative IPC: 0.37875 (Simulation time: 0 hr 11 min 36 sec) 
Heartbeat CPU  1 instructions:   92000000 cycles:  151958388 heartbeat IPC: 0.22780 cumulative IPC: 0.31960 (Simulation time: 0 hr 11 min 36 sec) 
Heartbeat CPU  3 instructions:  101000003 cycles:  152787063 heartbeat IPC: 0.46494 cumulative IPC: 0.33069 (Simulation time: 0 hr 11 min 38 sec) 
Heartbeat CPU  2 instructions:  103000000 cycles:  154600440 heartbeat IPC: 0.36680 cumulative IPC: 0.37850 (Simulation time: 0 hr 11 min 43 sec) 
Heartbeat CPU  0 instructions:  103000003 cycles:  154699522 heartbeat IPC: 0.23642 cumulative IPC: 0.35973 (Simulation time: 0 hr 11 min 43 sec) 
Heartbeat CPU  1 instructions:   93000003 cycles:  155155182 heartbeat IPC: 0.31281 cumulative IPC: 0.31944 (Simulation time: 0 hr 11 min 45 sec) 
Heartbeat CPU  3 instructions:  102000000 cycles:  155373424 heartbeat IPC: 0.38664 cumulative IPC: 0.33176 (Simulation time: 0 hr 11 min 45 sec) 
Heartbeat CPU  0 instructions:  104000000 cycles:  157295436 heartbeat IPC: 0.38522 cumulative IPC: 0.36021 (Simulation time: 0 hr 11 min 51 sec) 
Heartbeat CPU  3 instructions:  103000000 cycles:  157462899 heartbeat IPC: 0.47859 cumulative IPC: 0.33400 (Simulation time: 0 hr 11 min 51 sec) 
Heartbeat CPU  1 instructions:   94000003 cycles:  158104969 heartbeat IPC: 0.33901 cumulative IPC: 0.31986 (Simulation time: 0 hr 11 min 53 sec) 
Heartbeat CPU  2 instructions:  104000000 cycles:  158859000 heartbeat IPC: 0.23482 cumulative IPC: 0.37408 (Simulation time: 0 hr 11 min 55 sec) 
Heartbeat CPU  3 instructions:  104000000 cycles:  160047741 heartbeat IPC: 0.38687 cumulative IPC: 0.33498 (Simulation time: 0 hr 11 min 59 sec) 
Heartbeat CPU  1 instructions:   95000000 cycles:  160247290 heartbeat IPC: 0.46678 cumulative IPC: 0.32211 (Simulation time: 0 hr 11 min 59 sec) 
Heartbeat CPU  0 instructions:  105000001 cycles:  160250790 heartbeat IPC: 0.33837 cumulative IPC: 0.35975 (Simulation time: 0 hr 11 min 59 sec) 
Heartbeat CPU  2 instructions:  105000002 cycles:  161522668 heartbeat IPC: 0.37542 cumulative IPC: 0.37411 (Simulation time: 0 hr 12 min 3 sec) 
Heartbeat CPU  3 instructions:  105000003 cycles:  162679932 heartbeat IPC: 0.37991 cumulative IPC: 0.33581 (Simulation time: 0 hr 12 min 6 sec) 
Heartbeat CPU  1 instructions:   96000000 cycles:  162855361 heartbeat IPC: 0.38343 cumulative IPC: 0.32323 (Simulation time: 0 hr 12 min 7 sec) 
Heartbeat CPU  0 instructions:  106000000 cycles:  162914647 heartbeat IPC: 0.37540 cumulative IPC: 0.36004 (Simulation time: 0 hr 12 min 7 sec) 
Heartbeat CPU  2 instructions:  106000002 cycles:  164199997 heartbeat IPC: 0.37351 cumulative IPC: 0.37410 (Simulation time: 0 hr 12 min 11 sec) 
Heartbeat CPU  3 instructions:  106000002 cycles:  165241615 heartbeat IPC: 0.39037 cumulative IPC: 0.33678 (Simulation time: 0 hr 12 min 14 sec) 
Heartbeat CPU  1 instructions:   97000003 cycles:  165569669 heartbeat IPC: 0.36842 cumulative IPC: 0.32408 (Simulation time: 0 hr 12 min 15 sec) 
Heartbeat CPU  0 instructions:  107000001 cycles:  165597204 heartbeat IPC: 0.37278 cumulative IPC: 0.36028 (Simulation time: 0 hr 12 min 15 sec) 
Heartbeat CPU  2 instructions:  107000000 cycles:  166890817 heartbeat IPC: 0.37163 cumulative IPC: 0.37405 (Simulation time: 0 hr 12 min 19 sec) 
Heartbeat CPU  3 instructions:  107000000 cycles:  167779272 heartbeat IPC: 0.39406 cumulative IPC: 0.33777 (Simulation time: 0 hr 12 min 22 sec) 
Heartbeat CPU  0 instructions:  108000000 cycles:  167787366 heartbeat IPC: 0.45659 cumulative IPC: 0.36171 (Simulation time: 0 hr 12 min 22 sec) 
Heartbeat CPU  1 instructions:   98000001 cycles:  167881492 heartbeat IPC: 0.43256 cumulative IPC: 0.32578 (Simulation time: 0 hr 12 min 22 sec) 
Heartbeat CPU  2 instructions:  108000000 cycles:  170030270 heartbeat IPC: 0.31853 cumulative IPC: 0.37288 (Simulation time: 0 hr 12 min 28 sec) 
Heartbeat CPU  3 instructions:  108000000 cycles:  170087206 heartbeat IPC: 0.43329 cumulative IPC: 0.33924 (Simulation time: 0 hr 12 min 29 sec) 
Heartbeat CPU  0 instructions:  109000002 cycles:  170459620 heartbeat IPC: 0.37422 cumulative IPC: 0.36193 (Simulation time: 0 hr 12 min 30 sec) 
Heartbeat CPU  1 instructions:   99000003 cycles:  170467607 heartbeat IPC: 0.38668 cumulative IPC: 0.32683 (Simulation time: 0 hr 12 min 30 sec) 
Heartbeat CPU  3 instructions:  109000002 cycles:  172199731 heartbeat IPC: 0.47337 cumulative IPC: 0.34111 (Simulation time: 0 hr 12 min 35 sec) 
Heartbeat CPU  2 instructions:  109000000 cycles:  172782408 heartbeat IPC: 0.36335 cumulative IPC: 0.37271 (Simulation time: 0 hr 12 min 37 sec) 
*** Reached end of trace for Core: 1 Repeating trace: /data3/CASSANDRA/traces/cassandra_phase0_core1.trace.xz
Heartbeat CPU  1 instructions:  100000000 cycles:  173432540 heartbeat IPC: 0.33727 cumulative IPC: 0.32704 (Simulation time: 0 hr 12 min 39 sec) 
Heartbeat CPU  0 instructions:  110000000 cycles:  173605085 heartbeat IPC: 0.31792 cumulative IPC: 0.36103 (Simulation time: 0 hr 12 min 39 sec) 
Heartbeat CPU  3 instructions:  110000003 cycles:  174992641 heartbeat IPC: 0.35805 cumulative IPC: 0.34142 (Simulation time: 0 hr 12 min 43 sec) 
Heartbeat CPU  2 instructions:  110000000 cycles:  175697800 heartbeat IPC: 0.34301 cumulative IPC: 0.37215 (Simulation time: 0 hr 12 min 45 sec) 
Heartbeat CPU  0 instructions:  111000002 cycles:  176670692 heartbeat IPC: 0.32620 cumulative IPC: 0.36035 (Simulation time: 0 hr 12 min 48 sec) 
Heartbeat CPU  1 instructions:  101000001 cycles:  176903061 heartbeat IPC: 0.28814 cumulative IPC: 0.32617 (Simulation time: 0 hr 12 min 48 sec) 
Heartbeat CPU  3 instructions:  111000000 cycles:  177887875 heartbeat IPC: 0.34539 cumulative IPC: 0.34149 (Simulation time: 0 hr 12 min 51 sec) 
Heartbeat CPU  2 instructions:  111000000 cycles:  178888024 heartbeat IPC: 0.31346 cumulative IPC: 0.37097 (Simulation time: 0 hr 12 min 54 sec) 
Heartbeat CPU  0 instructions:  112000000 cycles:  178994109 heartbeat IPC: 0.43040 cumulative IPC: 0.36137 (Simulation time: 0 hr 12 min 54 sec) 
Heartbeat CPU  3 instructions:  112000000 cycles:  180378970 heartbeat IPC: 0.40143 cumulative IPC: 0.34242 (Simulation time: 0 hr 12 min 57 sec) 
Heartbeat CPU  1 instructions:  102000001 cycles:  181723717 heartbeat IPC: 0.20744 cumulative IPC: 0.32262 (Simulation time: 0 hr 13 min 1 sec) 
Heartbeat CPU  2 instructions:  112000000 cycles:  181772927 heartbeat IPC: 0.34663 cumulative IPC: 0.37054 (Simulation time: 0 hr 13 min 1 sec) 
Heartbeat CPU  0 instructions:  113000002 cycles:  181774042 heartbeat IPC: 0.35972 cumulative IPC: 0.36134 (Simulation time: 0 hr 13 min 1 sec) 
Heartbeat CPU  3 instructions:  113000000 cycles:  183228133 heartbeat IPC: 0.35098 cumulative IPC: 0.34257 (Simulation time: 0 hr 13 min 6 sec) 
Heartbeat CPU  1 instructions:  103000003 cycles:  184098320 heartbeat IPC: 0.42112 cumulative IPC: 0.32405 (Simulation time: 0 hr 13 min 8 sec) 
Heartbeat CPU  2 instructions:  113000003 cycles:  184417261 heartbeat IPC: 0.37817 cumulative IPC: 0.37066 (Simulation time: 0 hr 13 min 9 sec) 
Heartbeat CPU  0 instructions:  114000003 cycles:  184693399 heartbeat IPC: 0.34254 cumulative IPC: 0.36101 (Simulation time: 0 hr 13 min 10 sec) 
Heartbeat CPU  3 instructions:  114000001 cycles:  186066386 heartbeat IPC: 0.35233 cumulative IPC: 0.34274 (Simulation time: 0 hr 13 min 14 sec) 
Heartbeat CPU  1 instructions:  104000000 cycles:  186494442 heartbeat IPC: 0.41734 cumulative IPC: 0.32540 (Simulation time: 0 hr 13 min 15 sec) 
Heartbeat CPU  2 instructions:  114000000 cycles:  187179523 heartbeat IPC: 0.36202 cumulative IPC: 0.37052 (Simulation time: 0 hr 13 min 17 sec) 
Heartbeat CPU  0 instructions:  115000001 cycles:  187493557 heartbeat IPC: 0.35712 cumulative IPC: 0.36094 (Simulation time: 0 hr 13 min 18 sec) 
Heartbeat CPU  3 instructions:  115000002 cycles:  188604300 heartbeat IPC: 0.39402 cumulative IPC: 0.34351 (Simulation time: 0 hr 13 min 21 sec) 
Heartbeat CPU  1 instructions:  105000000 cycles:  189144175 heartbeat IPC: 0.37740 cumulative IPC: 0.32622 (Simulation time: 0 hr 13 min 23 sec) 
Heartbeat CPU  2 instructions:  115000002 cycles:  189798527 heartbeat IPC: 0.38183 cumulative IPC: 0.37069 (Simulation time: 0 hr 13 min 25 sec) 
Heartbeat CPU  0 instructions:  116000000 cycles:  190257880 heartbeat IPC: 0.36175 cumulative IPC: 0.36096 (Simulation time: 0 hr 13 min 26 sec) 
Heartbeat CPU  3 instructions:  116000000 cycles:  191123386 heartbeat IPC: 0.39697 cumulative IPC: 0.34430 (Simulation time: 0 hr 13 min 29 sec) 
Heartbeat CPU  1 instructions:  106000000 cycles:  191842535 heartbeat IPC: 0.37060 cumulative IPC: 0.32691 (Simulation time: 0 hr 13 min 31 sec) 
Heartbeat CPU  2 instructions:  116000000 cycles:  192760130 heartbeat IPC: 0.33765 cumulative IPC: 0.37012 (Simulation time: 0 hr 13 min 33 sec) 
Heartbeat CPU  0 instructions:  117000001 cycles:  192934351 heartbeat IPC: 0.37363 cumulative IPC: 0.36115 (Simulation time: 0 hr 13 min 34 sec) 
Heartbeat CPU  3 instructions:  117000000 cycles:  193650127 heartbeat IPC: 0.39577 cumulative IPC: 0.34506 (Simulation time: 0 hr 13 min 36 sec) 
Heartbeat CPU  1 instructions:  107000002 cycles:  195626055 heartbeat IPC: 0.26430 cumulative IPC: 0.32556 (Simulation time: 0 hr 13 min 41 sec) 
Heartbeat CPU  0 instructions:  118000003 cycles:  195733401 heartbeat IPC: 0.35726 cumulative IPC: 0.36109 (Simulation time: 0 hr 13 min 42 sec) 
Heartbeat CPU  2 instructions:  117000003 cycles:  195822043 heartbeat IPC: 0.32659 cumulative IPC: 0.36936 (Simulation time: 0 hr 13 min 42 sec) 
Heartbeat CPU  3 instructions:  118000000 cycles:  196192150 heartbeat IPC: 0.39339 cumulative IPC: 0.34575 (Simulation time: 0 hr 13 min 43 sec) 
Heartbeat CPU  0 instructions:  119000000 cycles:  197978907 heartbeat IPC: 0.44533 cumulative IPC: 0.36216 (Simulation time: 0 hr 13 min 49 sec) 
Heartbeat CPU  2 instructions:  118000003 cycles:  197999157 heartbeat IPC: 0.45932 cumulative IPC: 0.37047 (Simulation time: 0 hr 13 min 49 sec) 
Heartbeat CPU  1 instructions:  108000000 cycles:  198708025 heartbeat IPC: 0.32447 cumulative IPC: 0.32554 (Simulation time: 0 hr 13 min 50 sec) 
Heartbeat CPU  3 instructions:  119000003 cycles:  199037937 heartbeat IPC: 0.35140 cumulative IPC: 0.34584 (Simulation time: 0 hr 13 min 52 sec) 
Heartbeat CPU  2 instructions:  119000003 cycles:  200649610 heartbeat IPC: 0.37729 cumulative IPC: 0.37057 (Simulation time: 0 hr 13 min 56 sec) 
Heartbeat CPU  0 instructions:  120000000 cycles:  200678132 heartbeat IPC: 0.37048 cumulative IPC: 0.36228 (Simulation time: 0 hr 13 min 57 sec) 
Heartbeat CPU  3 instructions:  120000000 cycles:  201555941 heartbeat IPC: 0.39714 cumulative IPC: 0.34656 (Simulation time: 0 hr 13 min 59 sec) 
Heartbeat CPU  1 instructions:  109000000 cycles:  201695473 heartbeat IPC: 0.33473 cumulative IPC: 0.32569 (Simulation time: 0 hr 13 min 59 sec) 
Heartbeat CPU  0 instructions:  121000003 cycles:  203337158 heartbeat IPC: 0.37608 cumulative IPC: 0.36248 (Simulation time: 0 hr 14 min 4 sec) 
Heartbeat CPU  2 instructions:  120000000 cycles:  203766447 heartbeat IPC: 0.32084 cumulative IPC: 0.36972 (Simulation time: 0 hr 14 min 5 sec) 
Heartbeat CPU  3 instructions:  121000003 cycles:  204346960 heartbeat IPC: 0.35829 cumulative IPC: 0.34674 (Simulation time: 0 hr 14 min 7 sec) 
Heartbeat CPU  1 instructions:  110000002 cycles:  204390436 heartbeat IPC: 0.37106 cumulative IPC: 0.32636 (Simulation time: 0 hr 14 min 7 sec) 
Heartbeat CPU  0 instructions:  122000000 cycles:  206016622 heartbeat IPC: 0.37321 cumulative IPC: 0.36264 (Simulation time: 0 hr 14 min 12 sec) 
Heartbeat CPU  2 instructions:  121000002 cycles:  206465150 heartbeat IPC: 0.37055 cumulative IPC: 0.36973 (Simulation time: 0 hr 14 min 13 sec) 
Heartbeat CPU  1 instructions:  111000003 cycles:  207076828 heartbeat IPC: 0.37225 cumulative IPC: 0.32702 (Simulation time: 0 hr 14 min 15 sec) 
Heartbeat CPU  3 instructions:  122000003 cycles:  207200541 heartbeat IPC: 0.35044 cumulative IPC: 0.34679 (Simulation time: 0 hr 14 min 15 sec) 
Heartbeat CPU  2 instructions:  122000001 cycles:  208783060 heartbeat IPC: 0.43142 cumulative IPC: 0.37049 (Simulation time: 0 hr 14 min 20 sec) 
Heartbeat CPU  0 instructions:  123000001 cycles:  209035591 heartbeat IPC: 0.33124 cumulative IPC: 0.36214 (Simulation time: 0 hr 14 min 21 sec) 
Heartbeat CPU  1 instructions:  112000000 cycles:  209739236 heartbeat IPC: 0.37560 cumulative IPC: 0.32770 (Simulation time: 0 hr 14 min 23 sec) 
Heartbeat CPU  3 instructions:  123000001 cycles:  209789659 heartbeat IPC: 0.38623 cumulative IPC: 0.34733 (Simulation time: 0 hr 14 min 23 sec) 
Heartbeat CPU  2 instructions:  123000001 cycles:  211284540 heartbeat IPC: 0.39976 cumulative IPC: 0.37088 (Simulation time: 0 hr 14 min 28 sec) 
Heartbeat CPU  0 instructions:  124000000 cycles:  212133921 heartbeat IPC: 0.32275 cumulative IPC: 0.36150 (Simulation time: 0 hr 14 min 30 sec) 
Heartbeat CPU  3 instructions:  124000000 cycles:  212393211 heartbeat IPC: 0.38409 cumulative IPC: 0.34783 (Simulation time: 0 hr 14 min 31 sec) 
Heartbeat CPU  1 instructions:  113000003 cycles:  212401535 heartbeat IPC: 0.37562 cumulative IPC: 0.32837 (Simulation time: 0 hr 14 min 31 sec) 
Heartbeat CPU  2 instructions:  124000000 cycles:  213984860 heartbeat IPC: 0.37033 cumulative IPC: 0.37087 (Simulation time: 0 hr 14 min 35 sec) 
Heartbeat CPU  0 instructions:  125000000 cycles:  214849456 heartbeat IPC: 0.36825 cumulative IPC: 0.36159 (Simulation time: 0 hr 14 min 38 sec) 
Heartbeat CPU  1 instructions:  114000001 cycles:  215194175 heartbeat IPC: 0.35808 cumulative IPC: 0.32880 (Simulation time: 0 hr 14 min 39 sec) 
Heartbeat CPU  3 instructions:  125000000 cycles:  215382056 heartbeat IPC: 0.33458 cumulative IPC: 0.34763 (Simulation time: 0 hr 14 min 39 sec) 
Heartbeat CPU  2 instructions:  125000001 cycles:  216667090 heartbeat IPC: 0.37282 cumulative IPC: 0.37089 (Simulation time: 0 hr 14 min 43 sec) 
Heartbeat CPU  0 instructions:  126000001 cycles:  217569622 heartbeat IPC: 0.36762 cumulative IPC: 0.36168 (Simulation time: 0 hr 14 min 46 sec) 
Heartbeat CPU  1 instructions:  115000000 cycles:  217814111 heartbeat IPC: 0.38169 cumulative IPC: 0.32950 (Simulation time: 0 hr 14 min 46 sec) 
Heartbeat CPU  3 instructions:  126000000 cycles:  217979270 heartbeat IPC: 0.38503 cumulative IPC: 0.34812 (Simulation time: 0 hr 14 min 47 sec) 
Heartbeat CPU  2 instructions:  126000001 cycles:  219373162 heartbeat IPC: 0.36954 cumulative IPC: 0.37088 (Simulation time: 0 hr 14 min 51 sec) 
Heartbeat CPU  0 instructions:  127000001 cycles:  220276377 heartbeat IPC: 0.36945 cumulative IPC: 0.36178 (Simulation time: 0 hr 14 min 54 sec) 
Heartbeat CPU  1 instructions:  116000000 cycles:  220442311 heartbeat IPC: 0.38049 cumulative IPC: 0.33017 (Simulation time: 0 hr 14 min 54 sec) 
Heartbeat CPU  3 instructions:  127000000 cycles:  220606760 heartbeat IPC: 0.38059 cumulative IPC: 0.34855 (Simulation time: 0 hr 14 min 55 sec) 
Heartbeat CPU  0 instructions:  128000000 cycles:  222537022 heartbeat IPC: 0.44235 cumulative IPC: 0.36268 (Simulation time: 0 hr 15 min 0 sec) 
Heartbeat CPU  2 instructions:  127000000 cycles:  222554616 heartbeat IPC: 0.31432 cumulative IPC: 0.36999 (Simulation time: 0 hr 15 min 0 sec) 
Heartbeat CPU  1 instructions:  117000000 cycles:  223025712 heartbeat IPC: 0.38709 cumulative IPC: 0.33089 (Simulation time: 0 hr 15 min 2 sec) 
Heartbeat CPU  3 instructions:  128000000 cycles:  223248873 heartbeat IPC: 0.37848 cumulative IPC: 0.34894 (Simulation time: 0 hr 15 min 2 sec) 
Heartbeat CPU  0 instructions:  129000003 cycles:  225234398 heartbeat IPC: 0.37073 cumulative IPC: 0.36279 (Simulation time: 0 hr 15 min 7 sec) 
Heartbeat CPU  3 instructions:  129000003 cycles:  225849895 heartbeat IPC: 0.38447 cumulative IPC: 0.34939 (Simulation time: 0 hr 15 min 9 sec) 
Heartbeat CPU  1 instructions:  118000001 cycles:  226384127 heartbeat IPC: 0.29776 cumulative IPC: 0.33035 (Simulation time: 0 hr 15 min 11 sec) 
Heartbeat CPU  2 instructions:  128000000 cycles:  227039752 heartbeat IPC: 0.22296 cumulative IPC: 0.36679 (Simulation time: 0 hr 15 min 12 sec) 
Heartbeat CPU  0 instructions:  130000001 cycles:  227975975 heartbeat IPC: 0.36475 cumulative IPC: 0.36282 (Simulation time: 0 hr 15 min 15 sec) 
Heartbeat CPU  3 instructions:  130000002 cycles:  229079322 heartbeat IPC: 0.30965 cumulative IPC: 0.34877 (Simulation time: 0 hr 15 min 18 sec) 
Heartbeat CPU  1 instructions:  119000000 cycles:  229333279 heartbeat IPC: 0.33908 cumulative IPC: 0.33048 (Simulation time: 0 hr 15 min 19 sec) 
Heartbeat CPU  2 instructions:  129000001 cycles:  229919357 heartbeat IPC: 0.34727 cumulative IPC: 0.36652 (Simulation time: 0 hr 15 min 20 sec) 
Heartbeat CPU  0 instructions:  131000003 cycles:  231022757 heartbeat IPC: 0.32822 cumulative IPC: 0.36231 (Simulation time: 0 hr 15 min 24 sec) 
Heartbeat CPU  3 instructions:  131000001 cycles:  231274057 heartbeat IPC: 0.45564 cumulative IPC: 0.34988 (Simulation time: 0 hr 15 min 25 sec) 
Heartbeat CPU  1 instructions:  120000000 cycles:  232320003 heartbeat IPC: 0.33481 cumulative IPC: 0.33054 (Simulation time: 0 hr 15 min 28 sec) 
Heartbeat CPU  2 instructions:  130000001 cycles:  232413093 heartbeat IPC: 0.40100 cumulative IPC: 0.36693 (Simulation time: 0 hr 15 min 28 sec) 
Heartbeat CPU  0 instructions:  132000000 cycles:  233831044 heartbeat IPC: 0.35609 cumulative IPC: 0.36223 (Simulation time: 0 hr 15 min 32 sec) 
Heartbeat CPU  3 instructions:  132000000 cycles:  234183958 heartbeat IPC: 0.34365 cumulative IPC: 0.34980 (Simulation time: 0 hr 15 min 33 sec) 
Heartbeat CPU  1 instructions:  121000002 cycles:  235066257 heartbeat IPC: 0.36413 cumulative IPC: 0.33097 (Simulation time: 0 hr 15 min 36 sec) 
Heartbeat CPU  2 instructions:  131000001 cycles:  235398878 heartbeat IPC: 0.33492 cumulative IPC: 0.36648 (Simulation time: 0 hr 15 min 37 sec) 
Heartbeat CPU  0 instructions:  133000003 cycles:  236031841 heartbeat IPC: 0.45438 cumulative IPC: 0.36317 (Simulation time: 0 hr 15 min 38 sec) 
[...]
Core_2_L1I_acc_level_5 0
Core_2_L1I_acc_level_6 0
Core_2_L1I_acc_level_7 0
Core_2_L1I_acc_level_8 0
Core_2_L1I_acc_level_9 0

Core_2_L2C_total_access 2380626
Core_2_L2C_total_hit 910901
Core_2_L2C_total_miss 1469725
Core_2_L2C_loads 1593075
Core_2_L2C_load_hit 353064
Core_2_L2C_load_miss 1240011
Core_2_L2C_RFOs 127485
Core_2_L2C_RFO_hit 20665
Core_2_L2C_RFO_miss 106820
Core_2_L2C_prefetches 299799
Core_2_L2C_prefetch_hit 178945
Core_2_L2C_prefetch_miss 120854
Core_2_L2C_writebacks 360267
Core_2_L2C_writeback_hit 358227
Core_2_L2C_writeback_miss 2040
Core_2_L2C_prefetch_requested 4162688
Core_2_L2C_prefetch_dropped 3
Core_2_L2C_prefetch_issued 4162685
Core_2_L2C_prefetch_filled 206111
Core_2_L2C_prefetch_useful 181917
Core_2_L2C_prefetch_useless 24141
Core_2_L2C_prefetch_late 79802
Core_2_L2C_average_miss_latency 160.37209

Core_2_L2C_rq_access 1943797
Core_2_L2C_rq_forward 0
Core_2_L2C_rq_merged 0
Core_2_L2C_rq_to_cache 1943770
Core_2_L2C_rq_full 0

Core_2_L2C_wq_access 407685
Core_2_L2C_wq_forward 28
Core_2_L2C_wq_merged 0
Core_2_L2C_wq_to_cache 407685
Core_2_L2C_wq_full 0

Core_2_L2C_pq_access 4162685
Core_2_L2C_pq_forward 0
Core_2_L2C_pq_merged 487324
Core_2_L2C_pq_to_cache 3675360
Core_2_L2C_pq_full 0

Core_2_L2C_acc_epochs 211316
Core_2_L2C_acc_level_0 106964
Core_2_L2C_acc_level_1 17467
Core_2_L2C_acc_level_2 15755
Core_2_L2C_acc_level_3 11560
Core_2_L2C_acc_level_4 5590
Core_2_L2C_acc_level_5 15280
Core_2_L2C_acc_level_6 9426
Core_2_L2C_acc_level_7 6458
Core_2_L2C_acc_level_8 5161
Core_2_L2C_acc_level_9 17655

Core_2_LLC_total_access 3248074
Core_2_LLC_total_hit 1787046
Core_2_LLC_total_miss 1461028
Core_2_LLC_loads 1169504
Core_2_LLC_load_hit 616850
Core_2_LLC_load_miss 552654
Core_2_LLC_RFOs 106816
Core_2_LLC_RFO_hit 32422
Core_2_LLC_RFO_miss 74394
Core_2_LLC_prefetches 1643884
Core_2_LLC_prefetch_hit 836466
Core_2_LLC_prefetch_miss 807418
Core_2_LLC_writebacks 327870
Core_2_LLC_writeback_hit 301308
Core_2_LLC_writeback_miss 26562
Core_2_LLC_prefetch_requested 0
Core_2_LLC_prefetch_dropped 0
Core_2_LLC_prefetch_issued 0
Core_2_LLC_prefetch_filled 4521998
Core_2_LLC_prefetch_useful 1652435
Core_2_LLC_prefetch_useless 2829797
Core_2_LLC_prefetch_late 115707
Core_2_LLC_average_miss_latency 853.36434

Core_2_LLC_rq_access 5834658
Core_2_LLC_rq_forward 0
Core_2_LLC_rq_merged 0
Core_2_LLC_rq_to_cache 5834646
Core_2_LLC_rq_full 0

Core_2_LLC_wq_access 1504941
Core_2_LLC_wq_forward 13
Core_2_LLC_wq_merged 0
Core_2_LLC_wq_to_cache 1504941
Core_2_LLC_wq_full 0

Core_2_LLC_pq_access 12420496
Core_2_LLC_pq_forward 0
Core_2_LLC_pq_merged 552883
Core_2_LLC_pq_to_cache 11867612
Core_2_LLC_pq_full 0

Core_2_LLC_acc_epochs 464915
Core_2_LLC_acc_level_0 6565
Core_2_LLC_acc_level_1 38527
Core_2_LLC_acc_level_2 95987
Core_2_LLC_acc_level_3 112193
Core_2_LLC_acc_level_4 87018
Core_2_LLC_acc_level_5 51401
Core_2_LLC_acc_level_6 30705
Core_2_LLC_acc_level_7 16107
Core_2_LLC_acc_level_8 8644
Core_2_LLC_acc_level_9 17768

Core_2_major_page_fault 0
Core_2_minor_page_fault 43118

Core_3_instructions 150000000
Core_3_cycles 429399478
Core_3_IPC 0.34933

Core_3_branch_prediction_accuracy 97.32754
Core_3_branch_MPKI 3.18907
Core_3_average_ROB_occupancy_at_mispredict 88.45257

Core_3_L1D_total_access 14764869
Core_3_L1D_total_hit 13308729
Core_3_L1D_total_miss 1456140
Core_3_L1D_loads 9804960
Core_3_L1D_load_hit 8503055
Core_3_L1D_load_miss 1301905
Core_3_L1D_RFOs 4959909
Core_3_L1D_RFO_hit 4805674
Core_3_L1D_RFO_miss 154235
Core_3_L1D_prefetches 0
Core_3_L1D_prefetch_hit 0
Core_3_L1D_prefetch_miss 0
Core_3_L1D_writebacks 0
Core_3_L1D_writeback_hit 0
Core_3_L1D_writeback_miss 0
Core_3_L1D_prefetch_requested 0
Core_3_L1D_prefetch_dropped 0
Core_3_L1D_prefetch_issued 0
Core_3_L1D_prefetch_filled 0
Core_3_L1D_prefetch_useful 0
Core_3_L1D_prefetch_useless 0
Core_3_L1D_prefetch_late 0
Core_3_L1D_average_miss_latency 173.00651

Core_3_L1D_rq_access 18702579
Core_3_L1D_rq_forward 0
Core_3_L1D_rq_merged 7941255
Core_3_L1D_rq_to_cache 10761128
Core_3_L1D_rq_full 0

Core_3_L1D_wq_access 5849539
Core_3_L1D_wq_forward 196
Core_3_L1D_wq_merged 125577
Core_3_L1D_wq_to_cache 5723962
Core_3_L1D_wq_full 0

Core_3_L1D_pq_access 0
Core_3_L1D_pq_forward 0
Core_3_L1D_pq_merged 0
Core_3_L1D_pq_to_cache 0
Core_3_L1D_pq_full 0

Core_3_L1D_acc_epochs 212393
Core_3_L1D_acc_level_0 212393
Core_3_L1D_acc_level_1 0
Core_3_L1D_acc_level_2 0
Core_3_L1D_acc_level_3 0
Core_3_L1D_acc_level_4 0
Core_3_L1D_acc_level_5 0
Core_3_L1D_acc_level_6 0
Core_3_L1D_acc_level_7 0
Core_3_L1D_acc_level_8 0
Core_3_L1D_acc_level_9 0

Core_3_L1I_total_access 29742960
Core_3_L1I_total_hit 29146880
Core_3_L1I_total_miss 596080
Core_3_L1I_loads 29742960
Core_3_L1I_load_hit 29146880
Core_3_L1I_load_miss 596080
Core_3_L1I_RFOs 0
Core_3_L1I_RFO_hit 0
Core_3_L1I_RFO_miss 0
Core_3_L1I_prefetches 0
Core_3_L1I_prefetch_hit 0
Core_3_L1I_prefetch_miss 0
Core_3_L1I_writebacks 0
Core_3_L1I_writeback_hit 0
Core_3_L1I_writeback_miss 0
Core_3_L1I_prefetch_requested 0
Core_3_L1I_prefetch_dropped 0
Core_3_L1I_prefetch_issued 0
Core_3_L1I_prefetch_filled 0
Core_3_L1I_prefetch_useful 0
Core_3_L1I_prefetch_useless 0
Core_3_L1I_prefetch_late 0
Core_3_L1I_average_miss_latency 91.75837

Core_3_L1I_rq_access 160071671
Core_3_L1I_rq_forward 0
Core_3_L1I_rq_merged 127923064
Core_3_L1I_rq_to_cache 32148607
Core_3_L1I_rq_full 0

Core_3_L1I_wq_access 0
Core_3_L1I_wq_forward 0
Core_3_L1I_wq_merged 0
Core_3_L1I_wq_to_cache 0
Core_3_L1I_wq_full 0

Core_3_L1I_pq_access 0
Core_3_L1I_pq_forward 0
Core_3_L1I_pq_merged 0
Core_3_L1I_pq_to_cache 0
Core_3_L1I_pq_full 0

Core_3_L1I_acc_epochs 212393
Core_3_L1I_acc_level_0 212393
Core_3_L1I_acc_level_1 0
Core_3_L1I_acc_level_2 0
Core_3_L1I_acc_level_3 0
Core_3_L1I_acc_level_4 0
Core_3_L1I_acc_level_5 0
Core_3_L1I_acc_level_6 0
Core_3_L1I_acc_level_7 0
Core_3_L1I_acc_level_8 0
Core_3_L1I_acc_level_9 0

Core_3_L2C_total_access 2891411
Core_3_L2C_total_hit 1310607
Core_3_L2C_total_miss 1580804
Core_3_L2C_loads 1897981
Core_3_L2C_load_hit 566049
Core_3_L2C_load_miss 1331932
Core_3_L2C_RFOs 154208
Core_3_L2C_RFO_hit 29465
Core_3_L2C_RFO_miss 124743
Core_3_L2C_prefetches 438418
Core_3_L2C_prefetch_hit 316957
Core_3_L2C_prefetch_miss 121461
Core_3_L2C_writebacks 400804
Core_3_L2C_writeback_hit 398136
Core_3_L2C_writeback_miss 2668
Core_3_L2C_prefetch_requested 4231612
Core_3_L2C_prefetch_dropped 4
Core_3_L2C_prefetch_issued 4231608
Core_3_L2C_prefetch_filled 204889
Core_3_L2C_prefetch_useful 182826
Core_3_L2C_prefetch_useless 22014
Core_3_L2C_prefetch_late 75591
Core_3_L2C_average_miss_latency 149.31883

Core_3_L2C_rq_access 2152086
Core_3_L2C_rq_forward 0
Core_3_L2C_rq_merged 0
Core_3_L2C_rq_to_cache 2152052
Core_3_L2C_rq_full 0

Core_3_L2C_wq_access 420419
Core_3_L2C_wq_forward 34
Core_3_L2C_wq_merged 0
Core_3_L2C_wq_to_cache 420419
Core_3_L2C_wq_full 0

Core_3_L2C_pq_access 4231608
Core_3_L2C_pq_forward 0
Core_3_L2C_pq_merged 508459
Core_3_L2C_pq_to_cache 3723149
Core_3_L2C_pq_full 0

Core_3_L2C_acc_epochs 212393
Core_3_L2C_acc_level_0 110909
Core_3_L2C_acc_level_1 17236
Core_3_L2C_acc_level_2 15556
Core_3_L2C_acc_level_3 11012
Core_3_L2C_acc_level_4 5159
Core_3_L2C_acc_level_5 15092
Core_3_L2C_acc_level_6 8793
Core_3_L2C_acc_level_7 6074
Core_3_L2C_acc_level_8 4827
Core_3_L2C_acc_level_9 17735

Core_3_LLC_total_access 3507033
Core_3_LLC_total_hit 2018107
Core_3_LLC_total_miss 1488926
Core_3_LLC_loads 1260333
Core_3_LLC_load_hit 686103
Core_3_LLC_load_miss 574230
Core_3_LLC_RFOs 124738
Core_3_LLC_RFO_hit 37835
Core_3_LLC_RFO_miss 86903
Core_3_LLC_prefetches 1765110
Core_3_LLC_prefetch_hit 967657
Core_3_LLC_prefetch_miss 797453
Core_3_LLC_writebacks 356852
Core_3_LLC_writeback_hit 326512
Core_3_LLC_writeback_miss 30340
Core_3_LLC_prefetch_requested 0
Core_3_LLC_prefetch_dropped 0
Core_3_LLC_prefetch_issued 0
Core_3_LLC_prefetch_filled 4521998
Core_3_LLC_prefetch_useful 1652435
Core_3_LLC_prefetch_useless 2829797
Core_3_LLC_prefetch_late 115707
Core_3_LLC_average_miss_latency 837.37486

Core_3_LLC_rq_access 5834658
Core_3_LLC_rq_forward 0
Core_3_LLC_rq_merged 0
Core_3_LLC_rq_to_cache 5834646
Core_3_LLC_rq_full 0

Core_3_LLC_wq_access 1504941
Core_3_LLC_wq_forward 13
Core_3_LLC_wq_merged 0
Core_3_LLC_wq_to_cache 1504941
Core_3_LLC_wq_full 0

Core_3_LLC_pq_access 12420496
Core_3_LLC_pq_forward 0
Core_3_LLC_pq_merged 552883
Core_3_LLC_pq_to_cache 11867612
Core_3_LLC_pq_full 0

Core_3_LLC_acc_epochs 464915
Core_3_LLC_acc_level_0 6565
Core_3_LLC_acc_level_1 38527
Core_3_LLC_acc_level_2 95987
Core_3_LLC_acc_level_3 112193
Core_3_LLC_acc_level_4 87018
Core_3_LLC_acc_level_5 51401
Core_3_LLC_acc_level_6 30705
Core_3_LLC_acc_level_7 16107
Core_3_LLC_acc_level_8 8644
Core_3_LLC_acc_level_9 17768

Core_3_major_page_fault 0
Core_3_minor_page_fault 46807

spp.pref.total 4050702
spp.pref.at_L2 375684
spp.pref.at_LLC 3675018

spp.depth.max 10
spp.depth.min 0
spp.depth.avg 1

spp.breadth.max 2
spp.breadth.min 0
spp.breadth.avg 0

delta_1 4093115
delta_3 13824
delta_-2 11874
delta_-3 3084
delta_2 2448
delta_7 2318
delta_5 1959
delta_-6 1429
delta_-1 1422
delta_-4 950
delta_4 871
delta_-12 816
delta_-9 750
delta_-19 686
delta_-40 685
delta_9 540
delta_-10 428
delta_-5 302
delta_20 235
delta_-7 233
delta_23 228
delta_-17 213
delta_18 206
delta_19 170
delta_39 162
delta_-8 110
delta_22 104
delta_13 91
delta_32 49
delta_-16 31
delta_26 26
delta_-21 20
delta_-11 20
delta_-20 14
delta_-14 13
delta_-15 12
delta_6 12
delta_15 11
delta_21 11
delta_-18 8
delta_-22 4
delta_8 3
delta_12 2
delta_-41 2
delta_-43 2
delta_16 1
delta_11 1

depth_1_delta_1 1726931
depth_1_delta_-2 6371
depth_1_delta_3 5970
depth_1_delta_-3 2652
depth_1_delta_2 2447
depth_1_delta_7 2013
depth_1_delta_-1 1417
depth_1_delta_-6 1416
depth_1_delta_5 1171
depth_1_delta_-4 950
depth_1_delta_4 870
depth_1_delta_-12 786
depth_1_delta_-9 750
depth_1_delta_-40 685
depth_1_delta_-19 653
depth_1_delta_9 540
depth_1_delta_-10 428
depth_1_delta_-5 302
depth_1_delta_20 234
depth_1_delta_-7 233
depth_1_delta_23 228
depth_1_delta_-17 209
depth_1_delta_18 206
depth_1_delta_19 170
depth_1_delta_39 162
depth_1_delta_-8 110
depth_1_delta_22 104
depth_1_delta_13 91
depth_1_delta_32 49
depth_1_delta_-16 31
depth_1_delta_26 26
depth_1_delta_-21 20
depth_1_delta_-11 20
depth_1_delta_-20 14
depth_1_delta_-14 13
depth_1_delta_-15 12
depth_1_delta_6 12
depth_1_delta_15 11
depth_1_delta_21 10
depth_1_delta_-18 8
depth_1_delta_-22 4
depth_1_delta_8 3
depth_1_delta_12 2
depth_1_delta_-41 2
depth_1_delta_-43 2
depth_1_delta_16 1
depth_1_delta_11 1
depth_2_delta_1 824735
depth_2_delta_-2 5503
depth_2_delta_3 4705
depth_2_delta_5 508
depth_2_delta_-3 383
depth_2_delta_7 275
depth_2_delta_-19 33
depth_2_delta_-12 30
depth_2_delta_-6 13
depth_2_delta_-1 5
depth_2_delta_-17 4
depth_2_delta_2 1
depth_2_delta_20 1
depth_2_delta_21 1
depth_2_delta_4 1
depth_3_delta_1 616576
depth_3_delta_3 3149
depth_3_delta_5 231
depth_3_delta_-3 44
depth_3_delta_7 28
depth_4_delta_1 426767
depth_4_delta_5 45
depth_4_delta_-3 5
depth_4_delta_7 2
depth_5_delta_1 242683
depth_5_delta_5 4
depth_6_delta_1 141414
depth_7_delta_1 73465
depth_8_delta_1 27410
depth_9_delta_1 12328
depth_10_delta_1 806

spp.pref.total 4454471
spp.pref.at_L2 337529
spp.pref.at_LLC 4116942

spp.depth.max 10
spp.depth.min 0
spp.depth.avg 1

spp.breadth.max 2
spp.breadth.min 0
spp.breadth.avg 0

delta_1 4590823
delta_3 14407
delta_-2 11766
delta_-22 11233
delta_-27 3571
delta_-3 2842
delta_5 2008
delta_2 1821
delta_-1 1783
delta_-4 1648
delta_-5 1562
delta_7 1427
delta_-23 1313
delta_27 1141
delta_4 1121
delta_18 1116
delta_-10 476
delta_31 383
delta_19 359
delta_-6 272
delta_-9 262
delta_23 247
delta_11 170
delta_6 170
delta_9 151
delta_28 149
delta_-14 137
delta_-26 134
delta_-32 130
delta_-12 114
delta_-16 111
delta_-17 105
delta_-8 98
delta_-13 88
delta_-7 85
delta_14 79
delta_-19 76
delta_13 72
delta_8 45
delta_-11 41
delta_-24 37
delta_20 28
delta_-45 20
delta_-20 20
delta_10 19
delta_-43 18
delta_22 18
delta_32 14
delta_-30 12
delta_29 11
delta_-29 8
delta_-15 7
delta_-33 6
delta_44 6
delta_15 5
delta_12 1
delta_-35 1
delta_35 1
delta_45 1

depth_1_delta_1 2209607
depth_1_delta_-22 11221
depth_1_delta_3 6844
depth_1_delta_-2 6416
depth_1_delta_-27 3571
depth_1_delta_-3 2673
depth_1_delta_2 1813
depth_1_delta_-4 1648
depth_1_delta_-1 1597
depth_1_delta_5 1330
depth_1_delta_-23 1313
depth_1_delta_7 1260
depth_1_delta_-5 1143
depth_1_delta_27 1140
depth_1_delta_4 1121
depth_1_delta_18 954
depth_1_delta_-10 476
depth_1_delta_31 382
depth_1_delta_19 359
depth_1_delta_-6 272
depth_1_delta_-9 262
depth_1_delta_23 247
depth_1_delta_11 170
depth_1_delta_6 170
depth_1_delta_9 151
depth_1_delta_28 149
depth_1_delta_-14 134
depth_1_delta_-26 134
depth_1_delta_-32 130
depth_1_delta_-12 114
depth_1_delta_-16 109
depth_1_delta_-17 104
depth_1_delta_-8 98
depth_1_delta_-13 88
depth_1_delta_-7 85
depth_1_delta_14 79
depth_1_delta_-19 76
depth_1_delta_13 59
depth_1_delta_8 45
depth_1_delta_-11 41
depth_1_delta_-24 37
depth_1_delta_20 28
depth_1_delta_-45 20
depth_1_delta_-20 20
depth_1_delta_10 19
depth_1_delta_-43 18
depth_1_delta_22 18
depth_1_delta_32 14
depth_1_delta_-30 12
depth_1_delta_29 11
depth_1_delta_-29 8
depth_1_delta_-15 7
depth_1_delta_-33 6
depth_1_delta_44 6
depth_1_delta_15 5
depth_1_delta_12 1
depth_1_delta_-35 1
depth_1_delta_35 1
depth_1_delta_45 1
depth_2_delta_1 944617
depth_2_delta_-2 5350
depth_2_delta_3 4327
depth_2_delta_5 448
depth_2_delta_-5 278
depth_2_delta_-3 167
depth_2_delta_7 166
depth_2_delta_-1 166
depth_2_delta_18 119
depth_2_delta_13 13
depth_2_delta_-22 12
depth_2_delta_2 8
depth_2_delta_-14 3
depth_2_delta_-16 2
depth_2_delta_27 1
depth_2_delta_-17 1
depth_2_delta_31 1
depth_3_delta_1 599382
depth_3_delta_3 3236
depth_3_delta_5 195
depth_3_delta_-5 109
depth_3_delta_18 43
depth_3_delta_-1 20
depth_3_delta_-3 2
depth_3_delta_7 1
depth_4_delta_1 397852
depth_4_delta_5 34
depth_4_delta_-5 32
depth_5_delta_1 224492
depth_5_delta_5 1
depth_6_delta_1 122291
depth_7_delta_1 61005
depth_8_delta_1 21649
depth_9_delta_1 9122
depth_10_delta_1 806

spp.pref.total 4162688
spp.pref.at_L2 371454
spp.pref.at_LLC 3791234

spp.depth.max 10
spp.depth.min 0
spp.depth.avg 1

spp.breadth.max 2
spp.breadth.min 0
spp.breadth.avg 0

delta_1 4240127
delta_3 8693
delta_-2 8063
delta_7 3024
delta_-3 2628
delta_5 2008
delta_2 1461
delta_-1 1454
delta_-26 879
delta_4 664
delta_19 550
delta_-9 415
delta_6 374
delta_-4 263
delta_-5 242
delta_13 187
delta_-7 172
delta_23 172
delta_-12 169
delta_18 164
delta_-6 152
delta_11 127
delta_14 97
delta_-17 80
delta_-8 76
delta_8 64
delta_-11 58
delta_-19 46
delta_-14 34
delta_12 25
delta_9 20
delta_-35 14
delta_22 12
delta_-10 11
delta_15 10
delta_27 5
delta_-18 4
delta_32 4
delta_20 3
delta_17 3
delta_-25 3
delta_10 3
delta_-22 3
delta_16 2
delta_-20 1
delta_-33 1

depth_1_delta_1 1934147
depth_1_delta_-2 4246
depth_1_delta_3 3972
depth_1_delta_7 2768
depth_1_delta_-3 2306
depth_1_delta_-1 1452
depth_1_delta_2 1428
depth_1_delta_5 1208
depth_1_delta_-26 879
depth_1_delta_4 652
depth_1_delta_19 550
depth_1_delta_-9 415
depth_1_delta_6 374
depth_1_delta_-4 260
depth_1_delta_-5 242
depth_1_delta_13 187
depth_1_delta_-7 172
depth_1_delta_23 172
depth_1_delta_-12 169
depth_1_delta_18 164
depth_1_delta_-6 152
depth_1_delta_11 127
depth_1_delta_14 97
depth_1_delta_-17 79
depth_1_delta_-8 76
depth_1_delta_8 64
depth_1_delta_-11 58
depth_1_delta_-19 46
depth_1_delta_-14 34
depth_1_delta_12 25
depth_1_delta_9 20
depth_1_delta_-35 14
depth_1_delta_22 12
depth_1_delta_-10 11
depth_1_delta_15 10
depth_1_delta_27 5
depth_1_delta_-18 4
depth_1_delta_32 4
depth_1_delta_20 3
depth_1_delta_17 3
depth_1_delta_-25 3
depth_1_delta_10 3
depth_1_delta_-22 3
depth_1_delta_16 2
depth_1_delta_-20 1
depth_1_delta_-33 1
depth_2_delta_1 883539
depth_2_delta_-2 3817
depth_2_delta_3 2990
depth_2_delta_5 523
depth_2_delta_-3 293
depth_2_delta_7 234
depth_2_delta_2 33
depth_2_delta_4 12
depth_2_delta_-4 3
depth_2_delta_-1 2
depth_2_delta_-17 1
depth_3_delta_1 623248
depth_3_delta_3 1731
depth_3_delta_5 249
depth_3_delta_-3 28
depth_3_delta_7 22
depth_4_delta_1 387418
depth_4_delta_5 28
depth_4_delta_-3 1
depth_5_delta_1 213506
depth_6_delta_1 118526
depth_7_delta_1 56460
depth_8_delta_1 16784
depth_9_delta_1 6209
depth_10_delta_1 290

spp.pref.total 4231612
spp.pref.at_L2 369609
spp.pref.at_LLC 3862003

spp.depth.max 10
spp.depth.min 0
spp.depth.avg 1

spp.breadth.max 2
spp.breadth.min 0
spp.breadth.avg 0

delta_1 4349694
delta_3 12790
delta_-2 10011
delta_-7 4861
delta_2 2960
delta_-3 2502
delta_-1 2014
delta_5 1971
delta_7 1460
delta_9 1172
delta_-43 978
delta_43 829
delta_4 824
delta_-9 730
delta_-6 606
delta_-12 517
delta_10 486
delta_-5 446
delta_-8 352
delta_-4 339
delta_11 307
delta_19 286
delta_-14 271
delta_-19 255
delta_20 232
delta_14 229
delta_23 210
delta_18 194
delta_6 193
delta_8 188
delta_-17 170
delta_-13 117
delta_-22 109
delta_-20 97
delta_-11 93
delta_-10 87
delta_17 86
delta_-15 82
delta_-25 82
delta_16 68
delta_-29 66
delta_22 63
delta_-23 61
delta_-16 58
delta_32 57
delta_42 57
delta_26 40
delta_28 34
delta_-36 27
delta_12 26
delta_13 22
delta_-35 21
delta_-33 17
delta_31 16
delta_-18 12
delta_49 11
delta_-27 11
delta_-26 9
delta_15 3
delta_-42 2
delta_-21 2
delta_-32 1

depth_1_delta_1 1939381
depth_1_delta_3 5907
depth_1_delta_-2 5422
depth_1_delta_-7 4768
depth_1_delta_2 2737
depth_1_delta_-3 2192
depth_1_delta_-1 2008
depth_1_delta_7 1270
depth_1_delta_5 1240
depth_1_delta_9 1172
depth_1_delta_-43 978
depth_1_delta_43 828
depth_1_delta_4 802
depth_1_delta_-9 704
depth_1_delta_-6 594
depth_1_delta_-12 491
depth_1_delta_10 485
depth_1_delta_-5 446
depth_1_delta_-8 352
depth_1_delta_11 307
depth_1_delta_19 286
depth_1_delta_-4 277
depth_1_delta_-14 267
depth_1_delta_-19 255
depth_1_delta_20 232
depth_1_delta_23 205
depth_1_delta_14 195
depth_1_delta_18 194
depth_1_delta_6 193
depth_1_delta_-17 167
depth_1_delta_8 141
depth_1_delta_-13 117
depth_1_delta_-22 108
depth_1_delta_-20 97
depth_1_delta_-11 93
depth_1_delta_-10 87
depth_1_delta_17 85
depth_1_delta_-15 82
depth_1_delta_16 68
depth_1_delta_-29 66
depth_1_delta_22 63
depth_1_delta_-23 61
depth_1_delta_-16 58
depth_1_delta_32 57
depth_1_delta_42 57
depth_1_delta_-25 49
depth_1_delta_26 40
depth_1_delta_28 34
depth_1_delta_-36 27
depth_1_delta_12 26
depth_1_delta_13 22
depth_1_delta_-35 21
depth_1_delta_-33 17
depth_1_delta_31 16
depth_1_delta_-18 12
depth_1_delta_49 11
depth_1_delta_-27 11
depth_1_delta_-26 9
depth_1_delta_15 3
depth_1_delta_-42 2
depth_1_delta_-21 2
depth_1_delta_-32 1
depth_2_delta_1 909447
depth_2_delta_-2 4589
depth_2_delta_3 3911
depth_2_delta_5 493
depth_2_delta_-3 265
depth_2_delta_2 223
depth_2_delta_7 167
depth_2_delta_-7 91
depth_2_delta_-25 33
depth_2_delta_14 31
depth_2_delta_-4 28
depth_2_delta_-12 26
depth_2_delta_-9 26
depth_2_delta_8 24
depth_2_delta_4 22
depth_2_delta_-6 12
depth_2_delta_-1 6
depth_2_delta_23 5
depth_2_delta_-14 4
depth_2_delta_-17 3
depth_2_delta_10 1
depth_2_delta_17 1
depth_2_delta_43 1
depth_2_delta_-22 1
depth_3_delta_1 628534
depth_3_delta_3 2972
depth_3_delta_5 217
depth_3_delta_-3 42
depth_3_delta_7 21
depth_3_delta_-4 20
depth_3_delta_8 16
depth_3_delta_14 3
depth_3_delta_-7 2
depth_4_delta_1 411516
depth_4_delta_5 21
depth_4_delta_-4 11
depth_4_delta_8 7
depth_4_delta_-3 3
depth_4_delta_7 2
depth_5_delta_1 223744
depth_5_delta_-4 3
depth_6_delta_1 127763
depth_7_delta_1 67561
depth_8_delta_1 27354
depth_9_delta_1 12745
depth_10_delta_1 1649

Channel_0_RQ_row_buffer_hit 180454
Channel_0_RQ_row_buffer_miss 2862247
Channel_0_WQ_row_buffer_hit 123307
Channel_0_WQ_row_buffer_miss 509103
Channel_0_WQ_full 0
Channel_0_dbus_congested 887574

Channel_1_RQ_row_buffer_hit 180598
Channel_1_RQ_row_buffer_miss 2872849
Channel_1_WQ_row_buffer_hit 124097
Channel_1_WQ_row_buffer_miss 507107
Channel_1_WQ_full 0
Channel_1_dbus_congested 885138

avg_congested_cycle 9

DRAM_bw_pochs 1859660
DRAM_bw_level_0 1554285
DRAM_bw_level_1 269203
DRAM_bw_level_2 28217
DRAM_bw_level_3 7955
