*************************************************
   ChampSim Multicore Out-of-Order Simulator
   Last compiled: Mar 31 2025 20:14:32
*************************************************
parsing config file: /data3/config/bingo.ini

trace_0 /data3/CASSANDRA/traces/cassandra_phase0_core0.trace.xz
trace_1 /data3/CASSANDRA/traces/cassandra_phase0_core1.trace.xz
trace_2 /data3/CASSANDRA/traces/cassandra_phase0_core2.trace.xz
trace_3 /data3/CASSANDRA/traces/cassandra_phase0_core3.trace.xz
adding L2C_PREFETCHER: Bingo
adding L2C_PREFETCHER: Bingo
adding L2C_PREFETCHER: Bingo
adding L2C_PREFETCHER: Bingo
Initialize SHIP state
warmup_instructions 50000000
simulation_instructions 150000000
champsim_seed 8742
measure_ipc 0
measure_ipc_epoch 1000
measure_dram_bw 1
measure_dram_bw_epoch 256
measure_cache_acc 1
measure_cache_acc_epoch 1024
l1d_perfect 0
l2c_perfect 0
llc_perfect 0
l1d_semi_perfect 0
l2c_semi_perfect 0
llc_semi_perfect 0
semi_perfect_cache_page_buffer_size 64

num_cpus 4
cpu_freq 4000
dram_io_freq 2400
page_size 4096
block_size 64
max_read_per_cycle 8
max_fill_per_cycle 1
dram_channels 2
log2_dram_channels 1
dram_ranks 1
dram_banks 8
dram_rows 65536
dram_columns 128
dram_row_size 8
dram_size 8192
dram_pages 2097152

fetch_width 6
decode_width 6
exec_width 4
lq_width 2
sq_width 2
retire_width 4
scheduler_size 128
branch_mispredict_penalty 20
rob_size 256
lq_size 72
sq_size 56
num_instr_destinations_sparc 4
num_instr_destinations 2
num_instr_sources 4

itlb_set 16
itlb_way 8
itlb_rq_size 16
itlb_wq_size 16
itlb_pq_size 0
itlb_mshr_size 8
itlb_latency 1

dtlb_set 16
dtlb_way 4
dtlb_rq_size 16
dtlb_wq_size 16
dtlb_pq_size 0
dtlb_mshr_size 8
dtlb_latency 1

stlb_set 128
stlb_way 12
stlb_rq_size 32
stlb_wq_size 32
stlb_pq_size 0
stlb_mshr_size 16
stlb_latency 8

l1i_size 32
l1i_set 64
l1i_way 8
l1i_rq_size 64
l1i_wq_size 64
l1i_pq_size 8
l1i_mshr_size 8
l1i_latency 1

l1d_size 32
l1d_set 64
l1d_way 8
l1d_rq_size 64
l1d_wq_size 64
l1d_pq_size 8
l1d_mshr_size 16
l1d_latency 4

l2c_size 256
l2c_set 512
l2c_way 8
l2c_rq_size 32
l2c_wq_size 32
l2c_pq_size 32
l2c_mshr_size 32
l2c_latency 10

llc_size 8192
llc_set 8192
llc_way 16
llc_rq_size 128
llc_wq_size 128
llc_pq_size 128
llc_mshr_size 256
llc_latency 20

dram_channel_width 8
dram_wq_size 64
dram_rq_size 64
tRP 15
tRCD 15
tCAS 12.5
dram_dbus_turn_around_time 30
dram_write_high_wm 56
dram_write_low_wm 48
min_dram_writes_per_switch 16
dram_mtps 2400
dram_dbus_return_time 13

bingo_region_size 2048
bingo_pattern_len 32
bingo_pc_width 16
bingo_min_addr_width 5
bingo_max_addr_width 16
bingo_ft_size 64
bingo_at_size 128
bingo_pht_size 4096
bingo_pht_ways 16
bingo_pf_streamer_size 128
bingo_debug_level 0
bingo_l1d_thresh 1.01
bingo_l2c_thresh 0.8
bingo_llc_thresh 0.05
bingo_pc_address_fill_level L2


Heartbeat CPU  3 instructions:    1000002 cycles:     350170 heartbeat IPC: 2.85576 cumulative IPC: 2.85576 (Simulation time: 0 hr 0 min 5 sec) 
Heartbeat CPU  2 instructions:    1000002 cycles:     394186 heartbeat IPC: 2.53688 cumulative IPC: 2.53688 (Simulation time: 0 hr 0 min 5 sec) 
Heartbeat CPU  0 instructions:    1000000 cycles:     535974 heartbeat IPC: 1.86576 cumulative IPC: 1.86576 (Simulation time: 0 hr 0 min 8 sec) 
Heartbeat CPU  1 instructions:    1000001 cycles:     543395 heartbeat IPC: 1.84028 cumulative IPC: 1.84028 (Simulation time: 0 hr 0 min 8 sec) 
Heartbeat CPU  3 instructions:    2000000 cycles:     677796 heartbeat IPC: 3.05225 cumulative IPC: 2.95074 (Simulation time: 0 hr 0 min 10 sec) 
Heartbeat CPU  2 instructions:    2000000 cycles:     730869 heartbeat IPC: 2.97015 cumulative IPC: 2.73647 (Simulation time: 0 hr 0 min 11 sec) 
Heartbeat CPU  0 instructions:    2000000 cycles:     906538 heartbeat IPC: 2.69859 cumulative IPC: 2.20620 (Simulation time: 0 hr 0 min 13 sec) 
Heartbeat CPU  3 instructions:    3000000 cycles:     997911 heartbeat IPC: 3.12388 cumulative IPC: 3.00628 (Simulation time: 0 hr 0 min 14 sec) 
Heartbeat CPU  2 instructions:    3000000 cycles:    1066703 heartbeat IPC: 2.97766 cumulative IPC: 2.81240 (Simulation time: 0 hr 0 min 15 sec) 
Heartbeat CPU  1 instructions:    2000003 cycles:    1287632 heartbeat IPC: 1.34366 cumulative IPC: 1.55324 (Simulation time: 0 hr 0 min 18 sec) 
Heartbeat CPU  3 instructions:    4000000 cycles:    1324749 heartbeat IPC: 3.05962 cumulative IPC: 3.01944 (Simulation time: 0 hr 0 min 19 sec) 
Heartbeat CPU  0 instructions:    3000003 cycles:    1604877 heartbeat IPC: 1.43197 cumulative IPC: 1.86930 (Simulation time: 0 hr 0 min 22 sec) 
Heartbeat CPU  1 instructions:    3000002 cycles:    1635870 heartbeat IPC: 2.87160 cumulative IPC: 1.83389 (Simulation time: 0 hr 0 min 23 sec) 
Heartbeat CPU  3 instructions:    5000001 cycles:    1656137 heartbeat IPC: 3.01761 cumulative IPC: 3.01907 (Simulation time: 0 hr 0 min 23 sec) 
Heartbeat CPU  2 instructions:    4000000 cycles:    1743517 heartbeat IPC: 1.47751 cumulative IPC: 2.29421 (Simulation time: 0 hr 0 min 25 sec) 
Heartbeat CPU  1 instructions:    4000000 cycles:    1978331 heartbeat IPC: 2.92003 cumulative IPC: 2.02191 (Simulation time: 0 hr 0 min 28 sec) 
Heartbeat CPU  0 instructions:    4000000 cycles:    2013338 heartbeat IPC: 2.44821 cumulative IPC: 1.98675 (Simulation time: 0 hr 0 min 29 sec) 
Heartbeat CPU  3 instructions:    6000002 cycles:    2040089 heartbeat IPC: 2.60449 cumulative IPC: 2.94105 (Simulation time: 0 hr 0 min 29 sec) 
Heartbeat CPU  2 instructions:    5000000 cycles:    2089521 heartbeat IPC: 2.89014 cumulative IPC: 2.39289 (Simulation time: 0 hr 0 min 30 sec) 
Heartbeat CPU  1 instructions:    5000003 cycles:    2305710 heartbeat IPC: 3.05457 cumulative IPC: 2.16853 (Simulation time: 0 hr 0 min 34 sec) 
Heartbeat CPU  3 instructions:    7000001 cycles:    2371718 heartbeat IPC: 3.01541 cumulative IPC: 2.95145 (Simulation time: 0 hr 0 min 35 sec) 
Heartbeat CPU  0 instructions:    5000001 cycles:    2388568 heartbeat IPC: 2.66503 cumulative IPC: 2.09330 (Simulation time: 0 hr 0 min 35 sec) 
Heartbeat CPU  2 instructions:    6000003 cycles:    2412333 heartbeat IPC: 3.09779 cumulative IPC: 2.48722 (Simulation time: 0 hr 0 min 36 sec) 
Heartbeat CPU  1 instructions:    6000002 cycles:    2630610 heartbeat IPC: 3.07787 cumulative IPC: 2.28084 (Simulation time: 0 hr 0 min 40 sec) 
Heartbeat CPU  3 instructions:    8000000 cycles:    2697429 heartbeat IPC: 3.07020 cumulative IPC: 2.96579 (Simulation time: 0 hr 0 min 41 sec) 
Heartbeat CPU  0 instructions:    6000002 cycles:    2713111 heartbeat IPC: 3.08126 cumulative IPC: 2.21148 (Simulation time: 0 hr 0 min 41 sec) 
Heartbeat CPU  2 instructions:    7000002 cycles:    2735710 heartbeat IPC: 3.09236 cumulative IPC: 2.55875 (Simulation time: 0 hr 0 min 42 sec) 
Heartbeat CPU  3 instructions:    9000000 cycles:    3017079 heartbeat IPC: 3.12842 cumulative IPC: 2.98302 (Simulation time: 0 hr 0 min 46 sec) 
Heartbeat CPU  0 instructions:    7000000 cycles:    3039602 heartbeat IPC: 3.06287 cumulative IPC: 2.30293 (Simulation time: 0 hr 0 min 47 sec) 
Heartbeat CPU  1 instructions:    7000001 cycles:    3117491 heartbeat IPC: 2.05389 cumulative IPC: 2.24540 (Simulation time: 0 hr 0 min 48 sec) 
Heartbeat CPU  2 instructions:    8000000 cycles:    3227178 heartbeat IPC: 2.03472 cumulative IPC: 2.47895 (Simulation time: 0 hr 0 min 49 sec) 
Heartbeat CPU  0 instructions:    8000000 cycles:    3359116 heartbeat IPC: 3.12975 cumulative IPC: 2.38158 (Simulation time: 0 hr 0 min 51 sec) 
Heartbeat CPU  3 instructions:   10000003 cycles:    3400706 heartbeat IPC: 2.60671 cumulative IPC: 2.94057 (Simulation time: 0 hr 0 min 52 sec) 
Heartbeat CPU  2 instructions:    9000000 cycles:    3576040 heartbeat IPC: 2.86646 cumulative IPC: 2.51675 (Simulation time: 0 hr 0 min 55 sec) 
Heartbeat CPU  1 instructions:    8000000 cycles:    3624192 heartbeat IPC: 1.97355 cumulative IPC: 2.20739 (Simulation time: 0 hr 0 min 55 sec) 
Heartbeat CPU  0 instructions:    9000001 cycles:    3682474 heartbeat IPC: 3.09255 cumulative IPC: 2.44401 (Simulation time: 0 hr 0 min 56 sec) 
Heartbeat CPU  3 instructions:   11000002 cycles:    3838134 heartbeat IPC: 2.28609 cumulative IPC: 2.86598 (Simulation time: 0 hr 0 min 58 sec) 
Heartbeat CPU  1 instructions:    9000000 cycles:    4014929 heartbeat IPC: 2.55927 cumulative IPC: 2.24163 (Simulation time: 0 hr 1 min 1 sec) 
Heartbeat CPU  2 instructions:   10000000 cycles:    4045595 heartbeat IPC: 2.12968 cumulative IPC: 2.47182 (Simulation time: 0 hr 1 min 1 sec) 
Heartbeat CPU  0 instructions:   10000000 cycles:    4086342 heartbeat IPC: 2.47605 cumulative IPC: 2.44718 (Simulation time: 0 hr 1 min 2 sec) 
Heartbeat CPU  3 instructions:   12000000 cycles:    4218086 heartbeat IPC: 2.63191 cumulative IPC: 2.84489 (Simulation time: 0 hr 1 min 4 sec) 
Heartbeat CPU  1 instructions:   10000003 cycles:    4339744 heartbeat IPC: 3.07868 cumulative IPC: 2.30428 (Simulation time: 0 hr 1 min 6 sec) 
Heartbeat CPU  3 instructions:   13000000 cycles:    4575318 heartbeat IPC: 2.79930 cumulative IPC: 2.84133 (Simulation time: 0 hr 1 min 9 sec) 
Heartbeat CPU  2 instructions:   11000000 cycles:    4579188 heartbeat IPC: 1.87409 cumulative IPC: 2.40217 (Simulation time: 0 hr 1 min 9 sec) 
Heartbeat CPU  0 instructions:   11000001 cycles:    4600238 heartbeat IPC: 1.94592 cumulative IPC: 2.39118 (Simulation time: 0 hr 1 min 9 sec) 
Heartbeat CPU  1 instructions:   11000002 cycles:    4740240 heartbeat IPC: 2.49690 cumulative IPC: 2.32056 (Simulation time: 0 hr 1 min 11 sec) 
Heartbeat CPU  2 instructions:   12000000 cycles:    4935338 heartbeat IPC: 2.80781 cumulative IPC: 2.43144 (Simulation time: 0 hr 1 min 15 sec) 
Heartbeat CPU  3 instructions:   14000003 cycles:    4938467 heartbeat IPC: 2.75370 cumulative IPC: 2.83489 (Simulation time: 0 hr 1 min 15 sec) 
Heartbeat CPU  0 instructions:   12000000 cycles:    4939133 heartbeat IPC: 2.95076 cumulative IPC: 2.42958 (Simulation time: 0 hr 1 min 15 sec) 
Heartbeat CPU  1 instructions:   12000000 cycles:    5067278 heartbeat IPC: 3.05774 cumulative IPC: 2.36814 (Simulation time: 0 hr 1 min 17 sec) 
Heartbeat CPU  2 instructions:   13000002 cycles:    5259417 heartbeat IPC: 3.08567 cumulative IPC: 2.47176 (Simulation time: 0 hr 1 min 21 sec) 
Heartbeat CPU  0 instructions:   13000001 cycles:    5264512 heartbeat IPC: 3.07334 cumulative IPC: 2.46936 (Simulation time: 0 hr 1 min 21 sec) 
Heartbeat CPU  3 instructions:   15000002 cycles:    5264723 heartbeat IPC: 3.06507 cumulative IPC: 2.84915 (Simulation time: 0 hr 1 min 21 sec) 
Heartbeat CPU  1 instructions:   13000001 cycles:    5392746 heartbeat IPC: 3.07250 cumulative IPC: 2.41065 (Simulation time: 0 hr 1 min 23 sec) 
Heartbeat CPU  3 instructions:   16000000 cycles:    5588876 heartbeat IPC: 3.08496 cumulative IPC: 2.86283 (Simulation time: 0 hr 1 min 27 sec) 
Heartbeat CPU  2 instructions:   14000002 cycles:    5603499 heartbeat IPC: 2.90628 cumulative IPC: 2.49844 (Simulation time: 0 hr 1 min 27 sec) 
Heartbeat CPU  0 instructions:   14000000 cycles:    5665165 heartbeat IPC: 2.49592 cumulative IPC: 2.47124 (Simulation time: 0 hr 1 min 28 sec) 
Heartbeat CPU  1 instructions:   14000001 cycles:    5731899 heartbeat IPC: 2.94852 cumulative IPC: 2.44247 (Simulation time: 0 hr 1 min 29 sec) 
Heartbeat CPU  2 instructions:   15000000 cycles:    5926734 heartbeat IPC: 3.09372 cumulative IPC: 2.53090 (Simulation time: 0 hr 1 min 32 sec) 
Heartbeat CPU  0 instructions:   15000000 cycles:    6008101 heartbeat IPC: 2.91600 cumulative IPC: 2.49663 (Simulation time: 0 hr 1 min 34 sec) 
Heartbeat CPU  3 instructions:   17000002 cycles:    6037685 heartbeat IPC: 2.22812 cumulative IPC: 2.81565 (Simulation time: 0 hr 1 min 34 sec) 
Heartbeat CPU  1 instructions:   15000003 cycles:    6053892 heartbeat IPC: 3.10566 cumulative IPC: 2.47775 (Simulation time: 0 hr 1 min 35 sec) 
Heartbeat CPU  2 instructions:   16000000 cycles:    6331200 heartbeat IPC: 2.47240 cumulative IPC: 2.52717 (Simulation time: 0 hr 1 min 40 sec) 
Heartbeat CPU  0 instructions:   16000000 cycles:    6331704 heartbeat IPC: 3.09021 cumulative IPC: 2.52697 (Simulation time: 0 hr 1 min 40 sec) 
Heartbeat CPU  3 instructions:   18000001 cycles:    6362668 heartbeat IPC: 3.07708 cumulative IPC: 2.82900 (Simulation time: 0 hr 1 min 40 sec) 
Heartbeat CPU  1 instructions:   16000000 cycles:    6377570 heartbeat IPC: 3.08948 cumulative IPC: 2.50879 (Simulation time: 0 hr 1 min 40 sec) 
Heartbeat CPU  0 instructions:   17000003 cycles:    6710616 heartbeat IPC: 2.63914 cumulative IPC: 2.53330 (Simulation time: 0 hr 1 min 45 sec) 
Heartbeat CPU  1 instructions:   17000000 cycles:    6763770 heartbeat IPC: 2.58933 cumulative IPC: 2.51339 (Simulation time: 0 hr 1 min 46 sec) 
Heartbeat CPU  3 instructions:   19000000 cycles:    6827224 heartbeat IPC: 2.15259 cumulative IPC: 2.78298 (Simulation time: 0 hr 1 min 47 sec) 
Heartbeat CPU  2 instructions:   17000001 cycles:    6845669 heartbeat IPC: 1.94375 cumulative IPC: 2.48332 (Simulation time: 0 hr 1 min 47 sec) 
Heartbeat CPU  0 instructions:   18000001 cycles:    7048310 heartbeat IPC: 2.96125 cumulative IPC: 2.55380 (Simulation time: 0 hr 1 min 51 sec) 
Heartbeat CPU  3 instructions:   20000000 cycles:    7162238 heartbeat IPC: 2.98495 cumulative IPC: 2.79242 (Simulation time: 0 hr 1 min 52 sec) 
Heartbeat CPU  2 instructions:   18000001 cycles:    7162288 heartbeat IPC: 3.15837 cumulative IPC: 2.51316 (Simulation time: 0 hr 1 min 52 sec) 
Heartbeat CPU  1 instructions:   18000002 cycles:    7348946 heartbeat IPC: 1.70889 cumulative IPC: 2.44933 (Simulation time: 0 hr 1 min 55 sec) 
Heartbeat CPU  0 instructions:   19000003 cycles:    7364529 heartbeat IPC: 3.16237 cumulative IPC: 2.57993 (Simulation time: 0 hr 1 min 56 sec) 
Heartbeat CPU  2 instructions:   19000003 cycles:    7485541 heartbeat IPC: 3.09356 cumulative IPC: 2.53823 (Simulation time: 0 hr 1 min 58 sec) 
Heartbeat CPU  3 instructions:   21000000 cycles:    7528724 heartbeat IPC: 2.72862 cumulative IPC: 2.78932 (Simulation time: 0 hr 1 min 58 sec) 
Heartbeat CPU  0 instructions:   20000000 cycles:    7694441 heartbeat IPC: 3.03110 cumulative IPC: 2.59928 (Simulation time: 0 hr 2 min 1 sec) 
Heartbeat CPU  1 instructions:   19000002 cycles:    7759008 heartbeat IPC: 2.43866 cumulative IPC: 2.44877 (Simulation time: 0 hr 2 min 2 sec) 
Heartbeat CPU  2 instructions:   20000000 cycles:    7875314 heartbeat IPC: 2.56559 cumulative IPC: 2.53958 (Simulation time: 0 hr 2 min 4 sec) 
Heartbeat CPU  3 instructions:   22000002 cycles:    7891098 heartbeat IPC: 2.75959 cumulative IPC: 2.78795 (Simulation time: 0 hr 2 min 5 sec) 
Heartbeat CPU  0 instructions:   21000000 cycles:    8018142 heartbeat IPC: 3.08927 cumulative IPC: 2.61906 (Simulation time: 0 hr 2 min 7 sec) 
Heartbeat CPU  1 instructions:   20000000 cycles:    8132652 heartbeat IPC: 2.67634 cumulative IPC: 2.45922 (Simulation time: 0 hr 2 min 9 sec) 
Heartbeat CPU  2 instructions:   21000002 cycles:    8206446 heartbeat IPC: 3.01995 cumulative IPC: 2.55896 (Simulation time: 0 hr 2 min 10 sec) 
Heartbeat CPU  3 instructions:   23000002 cycles:    8219838 heartbeat IPC: 3.04192 cumulative IPC: 2.79811 (Simulation time: 0 hr 2 min 10 sec) 
Heartbeat CPU  0 instructions:   22000001 cycles:    8341924 heartbeat IPC: 3.08850 cumulative IPC: 2.63728 (Simulation time: 0 hr 2 min 12 sec) 
Heartbeat CPU  1 instructions:   21000003 cycles:    8467954 heartbeat IPC: 2.98239 cumulative IPC: 2.47994 (Simulation time: 0 hr 2 min 15 sec) 
Heartbeat CPU  2 instructions:   22000001 cycles:    8526564 heartbeat IPC: 3.12384 cumulative IPC: 2.58017 (Simulation time: 0 hr 2 min 16 sec) 
Heartbeat CPU  3 instructions:   24000000 cycles:    8626275 heartbeat IPC: 2.46040 cumulative IPC: 2.78220 (Simulation time: 0 hr 2 min 17 sec) 
Heartbeat CPU  0 instructions:   23000003 cycles:    8713811 heartbeat IPC: 2.68899 cumulative IPC: 2.63949 (Simulation time: 0 hr 2 min 19 sec) 
Heartbeat CPU  2 instructions:   23000002 cycles:    8856507 heartbeat IPC: 3.03083 cumulative IPC: 2.59696 (Simulation time: 0 hr 2 min 21 sec) 
Heartbeat CPU  3 instructions:   25000001 cycles:    9019324 heartbeat IPC: 2.54421 cumulative IPC: 2.77183 (Simulation time: 0 hr 2 min 23 sec) 
Heartbeat CPU  1 instructions:   22000000 cycles:    9117145 heartbeat IPC: 1.54037 cumulative IPC: 2.41304 (Simulation time: 0 hr 2 min 24 sec) 
Heartbeat CPU  0 instructions:   24000000 cycles:    9163316 heartbeat IPC: 2.22466 cumulative IPC: 2.61914 (Simulation time: 0 hr 2 min 25 sec) 
Heartbeat CPU  2 instructions:   24000000 cycles:    9190524 heartbeat IPC: 2.99385 cumulative IPC: 2.61139 (Simulation time: 0 hr 2 min 25 sec) 
Heartbeat CPU  3 instructions:   26000002 cycles:    9347031 heartbeat IPC: 3.05151 cumulative IPC: 2.78163 (Simulation time: 0 hr 2 min 28 sec) 
Heartbeat CPU  0 instructions:   25000003 cycles:    9487203 heartbeat IPC: 3.08751 cumulative IPC: 2.63513 (Simulation time: 0 hr 2 min 31 sec) 
Heartbeat CPU  2 instructions:   25000001 cycles:    9515848 heartbeat IPC: 3.07386 cumulative IPC: 2.62720 (Simulation time: 0 hr 2 min 31 sec) 
Heartbeat CPU  1 instructions:   23000001 cycles:    9532449 heartbeat IPC: 2.40788 cumulative IPC: 2.41281 (Simulation time: 0 hr 2 min 32 sec) 
Heartbeat CPU  3 instructions:   27000001 cycles:    9673319 heartbeat IPC: 3.06477 cumulative IPC: 2.79118 (Simulation time: 0 hr 2 min 34 sec) 
Heartbeat CPU  0 instructions:   26000000 cycles:    9813553 heartbeat IPC: 3.06419 cumulative IPC: 2.64940 (Simulation time: 0 hr 2 min 37 sec) 
Heartbeat CPU  2 instructions:   26000003 cycles:    9841465 heartbeat IPC: 3.07110 cumulative IPC: 2.64188 (Simulation time: 0 hr 2 min 37 sec) 
Heartbeat CPU  1 instructions:   24000000 cycles:    9854049 heartbeat IPC: 3.10945 cumulative IPC: 2.43555 (Simulation time: 0 hr 2 min 38 sec) 
Heartbeat CPU  3 instructions:   28000000 cycles:    9999863 heartbeat IPC: 3.06237 cumulative IPC: 2.80004 (Simulation time: 0 hr 2 min 40 sec) 
Heartbeat CPU  0 instructions:   27000000 cycles:   10137498 heartbeat IPC: 3.08694 cumulative IPC: 2.66338 (Simulation time: 0 hr 2 min 43 sec) 
Heartbeat CPU  1 instructions:   25000002 cycles:   10178881 heartbeat IPC: 3.07852 cumulative IPC: 2.45607 (Simulation time: 0 hr 2 min 43 sec) 
Heartbeat CPU  2 instructions:   27000000 cycles:   10280515 heartbeat IPC: 2.27764 cumulative IPC: 2.62633 (Simulation time: 0 hr 2 min 45 sec) 
Heartbeat CPU  3 instructions:   29000001 cycles:   10325503 heartbeat IPC: 3.07088 cumulative IPC: 2.80858 (Simulation time: 0 hr 2 min 46 sec) 
Heartbeat CPU  0 instructions:   28000000 cycles:   10461373 heartbeat IPC: 3.08761 cumulative IPC: 2.67651 (Simulation time: 0 hr 2 min 48 sec) 
Heartbeat CPU  1 instructions:   26000000 cycles:   10502628 heartbeat IPC: 3.08883 cumulative IPC: 2.47557 (Simulation time: 0 hr 2 min 48 sec) 
Heartbeat CPU  3 instructions:   30000001 cycles:   10734608 heartbeat IPC: 2.44436 cumulative IPC: 2.79470 (Simulation time: 0 hr 2 min 52 sec) 
Heartbeat CPU  0 instructions:   29000001 cycles:   10783456 heartbeat IPC: 3.10479 cumulative IPC: 2.68930 (Simulation time: 0 hr 2 min 53 sec) 
Heartbeat CPU  1 instructions:   27000001 cycles:   10827179 heartbeat IPC: 3.08118 cumulative IPC: 2.49372 (Simulation time: 0 hr 2 min 54 sec) 
Heartbeat CPU  2 instructions:   28000000 cycles:   10912376 heartbeat IPC: 1.58263 cumulative IPC: 2.56589 (Simulation time: 0 hr 2 min 55 sec) 
Heartbeat CPU  3 instructions:   31000000 cycles:   11054003 heartbeat IPC: 3.13092 cumulative IPC: 2.80441 (Simulation time: 0 hr 2 min 58 sec) 
Heartbeat CPU  0 instructions:   30000002 cycles:   11106942 heartbeat IPC: 3.09133 cumulative IPC: 2.70101 (Simulation time: 0 hr 2 min 59 sec) 
Heartbeat CPU  1 instructions:   28000000 cycles:   11188421 heartbeat IPC: 2.76822 cumulative IPC: 2.50259 (Simulation time: 0 hr 3 min 0 sec) 
Heartbeat CPU  2 instructions:   29000001 cycles:   11290591 heartbeat IPC: 2.64400 cumulative IPC: 2.56851 (Simulation time: 0 hr 3 min 2 sec) 
Heartbeat CPU  3 instructions:   32000000 cycles:   11421435 heartbeat IPC: 2.72159 cumulative IPC: 2.80175 (Simulation time: 0 hr 3 min 4 sec) 
Heartbeat CPU  0 instructions:   31000003 cycles:   11487800 heartbeat IPC: 2.62565 cumulative IPC: 2.69852 (Simulation time: 0 hr 3 min 5 sec) 
Heartbeat CPU  2 instructions:   30000000 cycles:   11624382 heartbeat IPC: 2.99588 cumulative IPC: 2.58078 (Simulation time: 0 hr 3 min 7 sec) 
Heartbeat CPU  1 instructions:   29000002 cycles:   11799870 heartbeat IPC: 1.63546 cumulative IPC: 2.45765 (Simulation time: 0 hr 3 min 9 sec) 
Heartbeat CPU  3 instructions:   33000001 cycles:   11829538 heartbeat IPC: 2.45036 cumulative IPC: 2.78963 (Simulation time: 0 hr 3 min 10 sec) 
Heartbeat CPU  0 instructions:   32000000 cycles:   11861675 heartbeat IPC: 2.67468 cumulative IPC: 2.69776 (Simulation time: 0 hr 3 min 10 sec) 
Heartbeat CPU  2 instructions:   31000000 cycles:   12010928 heartbeat IPC: 2.58701 cumulative IPC: 2.58098 (Simulation time: 0 hr 3 min 12 sec) 
Heartbeat CPU  0 instructions:   33000000 cycles:   12229715 heartbeat IPC: 2.71710 cumulative IPC: 2.69835 (Simulation time: 0 hr 3 min 16 sec) 
Heartbeat CPU  1 instructions:   30000003 cycles:   12243155 heartbeat IPC: 2.25589 cumulative IPC: 2.45035 (Simulation time: 0 hr 3 min 16 sec) 
Heartbeat CPU  3 instructions:   34000001 cycles:   12281420 heartbeat IPC: 2.21297 cumulative IPC: 2.76841 (Simulation time: 0 hr 3 min 16 sec) 
Heartbeat CPU  1 instructions:   31000000 cycles:   12570940 heartbeat IPC: 3.05077 cumulative IPC: 2.46600 (Simulation time: 0 hr 3 min 21 sec) 
Heartbeat CPU  2 instructions:   32000000 cycles:   12604389 heartbeat IPC: 1.68503 cumulative IPC: 2.53880 (Simulation time: 0 hr 3 min 21 sec) 
Heartbeat CPU  3 instructions:   35000000 cycles:   12657029 heartbeat IPC: 2.66234 cumulative IPC: 2.76526 (Simulation time: 0 hr 3 min 22 sec) 
Heartbeat CPU  0 instructions:   34000003 cycles:   12681877 heartbeat IPC: 2.21160 cumulative IPC: 2.68099 (Simulation time: 0 hr 3 min 22 sec) 
Heartbeat CPU  1 instructions:   32000000 cycles:   12978037 heartbeat IPC: 2.45642 cumulative IPC: 2.46570 (Simulation time: 0 hr 3 min 27 sec) 
Heartbeat CPU  3 instructions:   36000000 cycles:   12978740 heartbeat IPC: 3.10838 cumulative IPC: 2.77377 (Simulation time: 0 hr 3 min 27 sec) 
Heartbeat CPU  0 instructions:   35000000 cycles:   13015322 heartbeat IPC: 2.99899 cumulative IPC: 2.68914 (Simulation time: 0 hr 3 min 28 sec) 
Heartbeat CPU  2 instructions:   33000002 cycles:   13043162 heartbeat IPC: 2.27909 cumulative IPC: 2.53006 (Simulation time: 0 hr 3 min 28 sec) 
Heartbeat CPU  3 instructions:   37000001 cycles:   13301702 heartbeat IPC: 3.09634 cumulative IPC: 2.78160 (Simulation time: 0 hr 3 min 33 sec) 
Heartbeat CPU  1 instructions:   33000003 cycles:   13319052 heartbeat IPC: 2.93243 cumulative IPC: 2.47765 (Simulation time: 0 hr 3 min 33 sec) 
Heartbeat CPU  0 instructions:   36000000 cycles:   13334741 heartbeat IPC: 3.13068 cumulative IPC: 2.69971 (Simulation time: 0 hr 3 min 33 sec) 
Heartbeat CPU  2 instructions:   34000000 cycles:   13376951 heartbeat IPC: 2.99590 cumulative IPC: 2.54169 (Simulation time: 0 hr 3 min 34 sec) 
Heartbeat CPU  3 instructions:   38000002 cycles:   13626233 heartbeat IPC: 3.08137 cumulative IPC: 2.78874 (Simulation time: 0 hr 3 min 39 sec) 
Heartbeat CPU  1 instructions:   34000003 cycles:   13649979 heartbeat IPC: 3.02181 cumulative IPC: 2.49085 (Simulation time: 0 hr 3 min 39 sec) 
Heartbeat CPU  0 instructions:   37000001 cycles:   13656188 heartbeat IPC: 3.11094 cumulative IPC: 2.70939 (Simulation time: 0 hr 3 min 39 sec) 
Heartbeat CPU  2 instructions:   35000001 cycles:   13699498 heartbeat IPC: 3.10033 cumulative IPC: 2.55484 (Simulation time: 0 hr 3 min 40 sec) 
Heartbeat CPU  3 instructions:   39000001 cycles:   13950729 heartbeat IPC: 3.08170 cumulative IPC: 2.79555 (Simulation time: 0 hr 3 min 44 sec) 
Heartbeat CPU  0 instructions:   38000003 cycles:   14034439 heartbeat IPC: 2.64375 cumulative IPC: 2.70763 (Simulation time: 0 hr 3 min 46 sec) 
Heartbeat CPU  1 instructions:   35000001 cycles:   14067703 heartbeat IPC: 2.39392 cumulative IPC: 2.48797 (Simulation time: 0 hr 3 min 46 sec) 
Heartbeat CPU  2 instructions:   36000000 cycles:   14185779 heartbeat IPC: 2.05642 cumulative IPC: 2.53775 (Simulation time: 0 hr 3 min 47 sec) 
Heartbeat CPU  3 instructions:   40000000 cycles:   14323820 heartbeat IPC: 2.68031 cumulative IPC: 2.79255 (Simulation time: 0 hr 3 min 49 sec) 
Heartbeat CPU  0 instructions:   39000002 cycles:   14359090 heartbeat IPC: 3.08023 cumulative IPC: 2.71605 (Simulation time: 0 hr 3 min 50 sec) 
Heartbeat CPU  2 instructions:   37000003 cycles:   14606256 heartbeat IPC: 2.37826 cumulative IPC: 2.53316 (Simulation time: 0 hr 3 min 54 sec) 
Heartbeat CPU  0 instructions:   40000000 cycles:   14683890 heartbeat IPC: 3.07881 cumulative IPC: 2.72407 (Simulation time: 0 hr 3 min 55 sec) 
Heartbeat CPU  3 instructions:   41000001 cycles:   14692771 heartbeat IPC: 2.71039 cumulative IPC: 2.79049 (Simulation time: 0 hr 3 min 55 sec) 
Heartbeat CPU  1 instructions:   36000000 cycles:   14784712 heartbeat IPC: 1.39468 cumulative IPC: 2.43495 (Simulation time: 0 hr 3 min 57 sec) 
Heartbeat CPU  2 instructions:   38000003 cycles:   14931611 heartbeat IPC: 3.07357 cumulative IPC: 2.54494 (Simulation time: 0 hr 3 min 59 sec) 
Heartbeat CPU  0 instructions:   41000003 cycles:   15006032 heartbeat IPC: 3.10423 cumulative IPC: 2.73223 (Simulation time: 0 hr 4 min 1 sec) 
Heartbeat CPU  3 instructions:   42000002 cycles:   15021039 heartbeat IPC: 3.04629 cumulative IPC: 2.79608 (Simulation time: 0 hr 4 min 1 sec) 
Heartbeat CPU  1 instructions:   37000000 cycles:   15110653 heartbeat IPC: 3.06804 cumulative IPC: 2.44860 (Simulation time: 0 hr 4 min 3 sec) 
Heartbeat CPU  2 instructions:   39000000 cycles:   15326500 heartbeat IPC: 2.53235 cumulative IPC: 2.54461 (Simulation time: 0 hr 4 min 6 sec) 
Heartbeat CPU  3 instructions:   43000002 cycles:   15483314 heartbeat IPC: 2.16321 cumulative IPC: 2.77718 (Simulation time: 0 hr 4 min 9 sec) 
Heartbeat CPU  1 instructions:   38000003 cycles:   15485072 heartbeat IPC: 2.67081 cumulative IPC: 2.45398 (Simulation time: 0 hr 4 min 9 sec) 
Heartbeat CPU  2 instructions:   40000000 cycles:   15652034 heartbeat IPC: 3.07188 cumulative IPC: 2.55558 (Simulation time: 0 hr 4 min 11 sec) 
Heartbeat CPU  0 instructions:   42000001 cycles:   15689327 heartbeat IPC: 1.46349 cumulative IPC: 2.67698 (Simulation time: 0 hr 4 min 11 sec) 
Heartbeat CPU  3 instructions:   44000000 cycles:   15824844 heartbeat IPC: 2.92799 cumulative IPC: 2.78044 (Simulation time: 0 hr 4 min 14 sec) 
Heartbeat CPU  2 instructions:   41000001 cycles:   15977675 heartbeat IPC: 3.07087 cumulative IPC: 2.56608 (Simulation time: 0 hr 4 min 16 sec) 
Heartbeat CPU  1 instructions:   39000002 cycles:   15992173 heartbeat IPC: 1.97199 cumulative IPC: 2.43869 (Simulation time: 0 hr 4 min 17 sec) 
Heartbeat CPU  0 instructions:   43000000 cycles:   16077812 heartbeat IPC: 2.57410 cumulative IPC: 2.67449 (Simulation time: 0 hr 4 min 18 sec) 
Heartbeat CPU  3 instructions:   45000001 cycles:   16152840 heartbeat IPC: 3.04882 cumulative IPC: 2.78589 (Simulation time: 0 hr 4 min 19 sec) 
Heartbeat CPU  2 instructions:   42000003 cycles:   16295201 heartbeat IPC: 3.14935 cumulative IPC: 2.57745 (Simulation time: 0 hr 4 min 22 sec) 
Heartbeat CPU  1 instructions:   40000000 cycles:   16379009 heartbeat IPC: 2.58507 cumulative IPC: 2.44215 (Simulation time: 0 hr 4 min 23 sec) 
Heartbeat CPU  0 instructions:   44000000 cycles:   16447301 heartbeat IPC: 2.70644 cumulative IPC: 2.67521 (Simulation time: 0 hr 4 min 25 sec) 
Heartbeat CPU  3 instructions:   46000003 cycles:   16496407 heartbeat IPC: 2.91065 cumulative IPC: 2.78849 (Simulation time: 0 hr 4 min 26 sec) 
Heartbeat CPU  2 instructions:   43000001 cycles:   16623241 heartbeat IPC: 3.04840 cumulative IPC: 2.58674 (Simulation time: 0 hr 4 min 28 sec) 
Heartbeat CPU  1 instructions:   41000003 cycles:   16706080 heartbeat IPC: 3.05745 cumulative IPC: 2.45420 (Simulation time: 0 hr 4 min 29 sec) 
Heartbeat CPU  3 instructions:   47000000 cycles:   16815737 heartbeat IPC: 3.13155 cumulative IPC: 2.79500 (Simulation time: 0 hr 4 min 31 sec) 
Heartbeat CPU  0 instructions:   45000000 cycles:   16903833 heartbeat IPC: 2.19043 cumulative IPC: 2.66212 (Simulation time: 0 hr 4 min 33 sec) 
Heartbeat CPU  2 instructions:   44000000 cycles:   16946112 heartbeat IPC: 3.09721 cumulative IPC: 2.59647 (Simulation time: 0 hr 4 min 33 sec) 
Heartbeat CPU  3 instructions:   48000000 cycles:   17142673 heartbeat IPC: 3.05870 cumulative IPC: 2.80003 (Simulation time: 0 hr 4 min 36 sec) 
Heartbeat CPU  1 instructions:   42000002 cycles:   17180817 heartbeat IPC: 2.10643 cumulative IPC: 2.44459 (Simulation time: 0 hr 4 min 37 sec) 
Heartbeat CPU  0 instructions:   46000001 cycles:   17351261 heartbeat IPC: 2.23500 cumulative IPC: 2.65110 (Simulation time: 0 hr 4 min 39 sec) 
Heartbeat CPU  2 instructions:   45000000 cycles:   17356853 heartbeat IPC: 2.43462 cumulative IPC: 2.59264 (Simulation time: 0 hr 4 min 39 sec) 
Heartbeat CPU  3 instructions:   49000003 cycles:   17549884 heartbeat IPC: 2.45574 cumulative IPC: 2.79204 (Simulation time: 0 hr 4 min 42 sec) 
Heartbeat CPU  0 instructions:   47000000 cycles:   17678569 heartbeat IPC: 3.05522 cumulative IPC: 2.65859 (Simulation time: 0 hr 4 min 44 sec) 
Heartbeat CPU  1 instructions:   43000000 cycles:   17764476 heartbeat IPC: 1.71333 cumulative IPC: 2.42056 (Simulation time: 0 hr 4 min 45 sec) 
Heartbeat CPU  3 instructions:   50000003 cycles:   17861488 heartbeat IPC: 3.20920 cumulative IPC: 2.79932 (Simulation time: 0 hr 4 min 47 sec) 
Heartbeat CPU  2 instructions:   46000002 cycles:   17890731 heartbeat IPC: 1.87309 cumulative IPC: 2.57116 (Simulation time: 0 hr 4 min 47 sec) 
Heartbeat CPU  0 instructions:   48000000 cycles:   18003728 heartbeat IPC: 3.07542 cumulative IPC: 2.66611 (Simulation time: 0 hr 4 min 50 sec) 
Heartbeat CPU  1 instructions:   44000000 cycles:   18112780 heartbeat IPC: 2.87106 cumulative IPC: 2.42922 (Simulation time: 0 hr 4 min 51 sec) 
Heartbeat CPU  3 instructions:   51000003 cycles:   18184230 heartbeat IPC: 3.09845 cumulative IPC: 0.05499 (Simulation time: 0 hr 4 min 52 sec) 
Heartbeat CPU  0 instructions:   49000003 cycles:   18329402 heartbeat IPC: 3.07056 cumulative IPC: 2.67330 (Simulation time: 0 hr 4 min 55 sec) 
Heartbeat CPU  1 instructions:   45000000 cycles:   18437999 heartbeat IPC: 3.07485 cumulative IPC: 2.44061 (Simulation time: 0 hr 4 min 56 sec) 
Heartbeat CPU  2 instructions:   47000002 cycles:   18445818 heartbeat IPC: 1.80152 cumulative IPC: 2.54800 (Simulation time: 0 hr 4 min 57 sec) 
Heartbeat CPU  3 instructions:   52000000 cycles:   18614837 heartbeat IPC: 2.32230 cumulative IPC: 0.10744 (Simulation time: 0 hr 4 min 59 sec) 
Heartbeat CPU  0 instructions:   50000002 cycles:   18640581 heartbeat IPC: 3.21358 cumulative IPC: 2.68232 (Simulation time: 0 hr 5 min 0 sec) 
Heartbeat CPU  1 instructions:   46000002 cycles:   18789581 heartbeat IPC: 2.84429 cumulative IPC: 2.44817 (Simulation time: 0 hr 5 min 2 sec) 
Heartbeat CPU  2 instructions:   48000000 cycles:   18849515 heartbeat IPC: 2.47710 cumulative IPC: 2.54648 (Simulation time: 0 hr 5 min 3 sec) 
Heartbeat CPU  0 instructions:   51000001 cycles:   18957358 heartbeat IPC: 3.15679 cumulative IPC: 0.05275 (Simulation time: 0 hr 5 min 5 sec) 
Heartbeat CPU  3 instructions:   53000003 cycles:   19059388 heartbeat IPC: 2.24947 cumulative IPC: 0.15740 (Simulation time: 0 hr 5 min 7 sec) 
Heartbeat CPU  1 instructions:   47000003 cycles:   19139363 heartbeat IPC: 2.85893 cumulative IPC: 2.45567 (Simulation time: 0 hr 5 min 8 sec) 
Heartbeat CPU  2 instructions:   49000000 cycles:   19185006 heartbeat IPC: 2.98071 cumulative IPC: 2.55408 (Simulation time: 0 hr 5 min 9 sec) 
Heartbeat CPU  0 instructions:   52000000 cycles:   19283262 heartbeat IPC: 3.06839 cumulative IPC: 0.10372 (Simulation time: 0 hr 5 min 11 sec) 
Heartbeat CPU  3 instructions:   54000000 cycles:   19443408 heartbeat IPC: 2.60402 cumulative IPC: 0.20573 (Simulation time: 0 hr 5 min 14 sec) 
Heartbeat CPU  1 instructions:   48000000 cycles:   19467445 heartbeat IPC: 3.04801 cumulative IPC: 2.46565 (Simulation time: 0 hr 5 min 14 sec) 
Heartbeat CPU  2 instructions:   50000002 cycles:   19545641 heartbeat IPC: 2.77289 cumulative IPC: 2.55812 (Simulation time: 0 hr 5 min 15 sec) 
Heartbeat CPU  0 instructions:   53000001 cycles:   19659985 heartbeat IPC: 2.65447 cumulative IPC: 0.15259 (Simulation time: 0 hr 5 min 17 sec) 
Heartbeat CPU  3 instructions:   55000000 cycles:   19781325 heartbeat IPC: 2.95931 cumulative IPC: 0.25276 (Simulation time: 0 hr 5 min 19 sec) 
Heartbeat CPU  2 instructions:   51000000 cycles:   19870450 heartbeat IPC: 3.07873 cumulative IPC: 0.05033 (Simulation time: 0 hr 5 min 21 sec) 
Heartbeat CPU  1 instructions:   49000003 cycles:   20095364 heartbeat IPC: 1.59257 cumulative IPC: 2.43837 (Simulation time: 0 hr 5 min 24 sec) 
Heartbeat CPU  3 instructions:   56000000 cycles:   20110988 heartbeat IPC: 3.03340 cumulative IPC: 0.29834 (Simulation time: 0 hr 5 min 24 sec) 
Heartbeat CPU  0 instructions:   54000001 cycles:   20147159 heartbeat IPC: 2.05265 cumulative IPC: 0.19854 (Simulation time: 0 hr 5 min 24 sec) 
Heartbeat CPU  2 instructions:   52000000 cycles:   20305093 heartbeat IPC: 2.30074 cumulative IPC: 0.09850 (Simulation time: 0 hr 5 min 26 sec) 
Heartbeat CPU  3 instructions:   57000001 cycles:   20441274 heartbeat IPC: 3.02768 cumulative IPC: 0.34244 (Simulation time: 0 hr 5 min 28 sec) 
Heartbeat CPU  1 instructions:   50000003 cycles:   20530531 heartbeat IPC: 2.29797 cumulative IPC: 2.43540 (Simulation time: 0 hr 5 min 29 sec) 

Warmup complete CPU  0 instructions:   54720448 cycles:   20530531 (Simulation time: 0 hr 5 min 29 sec) 
Warmup complete CPU  1 instructions:   50000003 cycles:   20530531 (Simulation time: 0 hr 5 min 29 sec) 
Warmup complete CPU  2 instructions:   52255017 cycles:   20530530 (Simulation time: 0 hr 5 min 29 sec) 
Warmup complete CPU  3 instructions:   57275041 cycles:   20530531 (Simulation time: 0 hr 5 min 29 sec) 

Heartbeat CPU  0 instructions:   55000000 cycles:   21273148 heartbeat IPC: 0.88811 cumulative IPC: 0.37644 (Simulation time: 0 hr 5 min 32 sec) 
Heartbeat CPU  3 instructions:   58000001 cycles:   22379390 heartbeat IPC: 0.51596 cumulative IPC: 0.39211 (Simulation time: 0 hr 5 min 34 sec) 
Heartbeat CPU  1 instructions:   51000000 cycles:   23090306 heartbeat IPC: 0.39066 cumulative IPC: 0.39066 (Simulation time: 0 hr 5 min 37 sec) 
Heartbeat CPU  2 instructions:   53000001 cycles:   23534731 heartbeat IPC: 0.30963 cumulative IPC: 0.24798 (Simulation time: 0 hr 5 min 38 sec) 
Heartbeat CPU  0 instructions:   56000000 cycles:   24177049 heartbeat IPC: 0.34436 cumulative IPC: 0.35090 (Simulation time: 0 hr 5 min 40 sec) 
Heartbeat CPU  3 instructions:   59000002 cycles:   24963005 heartbeat IPC: 0.38705 cumulative IPC: 0.38916 (Simulation time: 0 hr 5 min 42 sec) 
Heartbeat CPU  2 instructions:   54000001 cycles:   26245151 heartbeat IPC: 0.36895 cumulative IPC: 0.30535 (Simulation time: 0 hr 5 min 46 sec) 
Heartbeat CPU  1 instructions:   52000000 cycles:   26827309 heartbeat IPC: 0.26759 cumulative IPC: 0.31762 (Simulation time: 0 hr 5 min 48 sec) 
Heartbeat CPU  0 instructions:   57000000 cycles:   27032833 heartbeat IPC: 0.35017 cumulative IPC: 0.35058 (Simulation time: 0 hr 5 min 48 sec) 
Heartbeat CPU  3 instructions:   60000000 cycles:   27522422 heartbeat IPC: 0.39071 cumulative IPC: 0.38973 (Simulation time: 0 hr 5 min 50 sec) 
Heartbeat CPU  2 instructions:   55000003 cycles:   28792785 heartbeat IPC: 0.39252 cumulative IPC: 0.33223 (Simulation time: 0 hr 5 min 54 sec) 
Heartbeat CPU  1 instructions:   53000003 cycles:   29299272 heartbeat IPC: 0.40454 cumulative IPC: 0.34212 (Simulation time: 0 hr 5 min 55 sec) 
Heartbeat CPU  0 instructions:   58000000 cycles:   29892713 heartbeat IPC: 0.34967 cumulative IPC: 0.35030 (Simulation time: 0 hr 5 min 57 sec) 
Heartbeat CPU  2 instructions:   56000000 cycles:   31508610 heartbeat IPC: 0.36821 cumulative IPC: 0.34113 (Simulation time: 0 hr 6 min 1 sec) 
Heartbeat CPU  1 instructions:   54000000 cycles:   31918694 heartbeat IPC: 0.38176 cumulative IPC: 0.35124 (Simulation time: 0 hr 6 min 2 sec) 
Heartbeat CPU  3 instructions:   61000002 cycles:   32446047 heartbeat IPC: 0.20310 cumulative IPC: 0.31261 (Simulation time: 0 hr 6 min 4 sec) 
Heartbeat CPU  0 instructions:   59000003 cycles:   32761995 heartbeat IPC: 0.34852 cumulative IPC: 0.34988 (Simulation time: 0 hr 6 min 4 sec) 
Heartbeat CPU  1 instructions:   55000000 cycles:   34261498 heartbeat IPC: 0.42684 cumulative IPC: 0.36414 (Simulation time: 0 hr 6 min 9 sec) 
Heartbeat CPU  2 instructions:   57000003 cycles:   34445531 heartbeat IPC: 0.34049 cumulative IPC: 0.34100 (Simulation time: 0 hr 6 min 9 sec) 
Heartbeat CPU  0 instructions:   60000000 cycles:   35608746 heartbeat IPC: 0.35128 cumulative IPC: 0.35014 (Simulation time: 0 hr 6 min 13 sec) 
Heartbeat CPU  3 instructions:   62000001 cycles:   36615400 heartbeat IPC: 0.23985 cumulative IPC: 0.29375 (Simulation time: 0 hr 6 min 16 sec) 
Heartbeat CPU  1 instructions:   56000000 cycles:   36664797 heartbeat IPC: 0.41609 cumulative IPC: 0.37188 (Simulation time: 0 hr 6 min 16 sec) 
Heartbeat CPU  2 instructions:   58000002 cycles:   37032367 heartbeat IPC: 0.38657 cumulative IPC: 0.34814 (Simulation time: 0 hr 6 min 17 sec) 
Heartbeat CPU  0 instructions:   61000003 cycles:   38733972 heartbeat IPC: 0.31998 cumulative IPC: 0.34497 (Simulation time: 0 hr 6 min 21 sec) 
Heartbeat CPU  1 instructions:   57000000 cycles:   39089056 heartbeat IPC: 0.41250 cumulative IPC: 0.37718 (Simulation time: 0 hr 6 min 22 sec) 
Heartbeat CPU  2 instructions:   59000001 cycles:   39535056 heartbeat IPC: 0.39957 cumulative IPC: 0.35491 (Simulation time: 0 hr 6 min 23 sec) 
Heartbeat CPU  0 instructions:   62000002 cycles:   41778581 heartbeat IPC: 0.32845 cumulative IPC: 0.34260 (Simulation time: 0 hr 6 min 29 sec) 
Heartbeat CPU  1 instructions:   58000000 cycles:   41953125 heartbeat IPC: 0.34915 cumulative IPC: 0.37344 (Simulation time: 0 hr 6 min 30 sec) 
Heartbeat CPU  2 instructions:   60000000 cycles:   42368537 heartbeat IPC: 0.35292 cumulative IPC: 0.35466 (Simulation time: 0 hr 6 min 31 sec) 
Heartbeat CPU  3 instructions:   63000001 cycles:   43146408 heartbeat IPC: 0.15312 cumulative IPC: 0.25314 (Simulation time: 0 hr 6 min 33 sec) 
Heartbeat CPU  1 instructions:   59000003 cycles:   44361203 heartbeat IPC: 0.41527 cumulative IPC: 0.37766 (Simulation time: 0 hr 6 min 36 sec) 
Heartbeat CPU  0 instructions:   63000000 cycles:   44489734 heartbeat IPC: 0.36885 cumulative IPC: 0.34557 (Simulation time: 0 hr 6 min 36 sec) 
Heartbeat CPU  2 instructions:   61000000 cycles:   44814163 heartbeat IPC: 0.40889 cumulative IPC: 0.36012 (Simulation time: 0 hr 6 min 37 sec) 
Heartbeat CPU  1 instructions:   60000000 cycles:   46770989 heartbeat IPC: 0.41497 cumulative IPC: 0.38109 (Simulation time: 0 hr 6 min 43 sec) 
Heartbeat CPU  0 instructions:   64000000 cycles:   47386133 heartbeat IPC: 0.34526 cumulative IPC: 0.34554 (Simulation time: 0 hr 6 min 45 sec) 
Heartbeat CPU  3 instructions:   64000000 cycles:   47576581 heartbeat IPC: 0.22572 cumulative IPC: 0.24865 (Simulation time: 0 hr 6 min 46 sec) 
Heartbeat CPU  2 instructions:   62000001 cycles:   47609805 heartbeat IPC: 0.35770 cumulative IPC: 0.35987 (Simulation time: 0 hr 6 min 46 sec) 
Heartbeat CPU  1 instructions:   61000002 cycles:   49441651 heartbeat IPC: 0.37444 cumulative IPC: 0.38048 (Simulation time: 0 hr 6 min 51 sec) 
Heartbeat CPU  0 instructions:   65000000 cycles:   50034882 heartbeat IPC: 0.37754 cumulative IPC: 0.34841 (Simulation time: 0 hr 6 min 53 sec) 
Heartbeat CPU  2 instructions:   63000000 cycles:   50140206 heartbeat IPC: 0.39519 cumulative IPC: 0.36289 (Simulation time: 0 hr 6 min 53 sec) 
Heartbeat CPU  3 instructions:   65000001 cycles:   50759254 heartbeat IPC: 0.31420 cumulative IPC: 0.25555 (Simulation time: 0 hr 6 min 55 sec) 
Heartbeat CPU  1 instructions:   62000001 cycles:   52614949 heartbeat IPC: 0.31513 cumulative IPC: 0.37401 (Simulation time: 0 hr 7 min 0 sec) 
Heartbeat CPU  2 instructions:   64000000 cycles:   52912466 heartbeat IPC: 0.36072 cumulative IPC: 0.36270 (Simulation time: 0 hr 7 min 1 sec) 
Heartbeat CPU  0 instructions:   66000000 cycles:   53270512 heartbeat IPC: 0.30906 cumulative IPC: 0.34452 (Simulation time: 0 hr 7 min 2 sec) 
Heartbeat CPU  3 instructions:   66000000 cycles:   53805333 heartbeat IPC: 0.32829 cumulative IPC: 0.26221 (Simulation time: 0 hr 7 min 3 sec) 
Heartbeat CPU  2 instructions:   65000003 cycles:   55883648 heartbeat IPC: 0.33657 cumulative IPC: 0.36051 (Simulation time: 0 hr 7 min 9 sec) 
Heartbeat CPU  1 instructions:   63000000 cycles:   56173608 heartbeat IPC: 0.28100 cumulative IPC: 0.36473 (Simulation time: 0 hr 7 min 10 sec) 
Heartbeat CPU  0 instructions:   67000002 cycles:   56363407 heartbeat IPC: 0.32332 cumulative IPC: 0.34269 (Simulation time: 0 hr 7 min 10 sec) 
Heartbeat CPU  3 instructions:   67000001 cycles:   57362443 heartbeat IPC: 0.28113 cumulative IPC: 0.26404 (Simulation time: 0 hr 7 min 13 sec) 
Heartbeat CPU  2 instructions:   66000001 cycles:   58353484 heartbeat IPC: 0.40488 cumulative IPC: 0.36340 (Simulation time: 0 hr 7 min 16 sec) 
Heartbeat CPU  0 instructions:   68000000 cycles:   59395909 heartbeat IPC: 0.32976 cumulative IPC: 0.34168 (Simulation time: 0 hr 7 min 19 sec) 
Heartbeat CPU  1 instructions:   64000000 cycles:   59423509 heartbeat IPC: 0.30770 cumulative IPC: 0.35996 (Simulation time: 0 hr 7 min 19 sec) 
Heartbeat CPU  3 instructions:   68000000 cycles:   60071773 heartbeat IPC: 0.36909 cumulative IPC: 0.27123 (Simulation time: 0 hr 7 min 21 sec) 
Heartbeat CPU  2 instructions:   67000001 cycles:   60840627 heartbeat IPC: 0.40207 cumulative IPC: 0.36579 (Simulation time: 0 hr 7 min 23 sec) 
Heartbeat CPU  0 instructions:   69000002 cycles:   62110841 heartbeat IPC: 0.36833 cumulative IPC: 0.34342 (Simulation time: 0 hr 7 min 27 sec) 
Heartbeat CPU  1 instructions:   65000001 cycles:   62296447 heartbeat IPC: 0.34808 cumulative IPC: 0.35914 (Simulation time: 0 hr 7 min 28 sec) 
Heartbeat CPU  3 instructions:   69000001 cycles:   62655891 heartbeat IPC: 0.38698 cumulative IPC: 0.27833 (Simulation time: 0 hr 7 min 29 sec) 
Heartbeat CPU  2 instructions:   68000000 cycles:   63348998 heartbeat IPC: 0.39866 cumulative IPC: 0.36771 (Simulation time: 0 hr 7 min 31 sec) 
Heartbeat CPU  0 instructions:   70000001 cycles:   64722016 heartbeat IPC: 0.38297 cumulative IPC: 0.34576 (Simulation time: 0 hr 7 min 35 sec) 
Heartbeat CPU  1 instructions:   66000000 cycles:   65020930 heartbeat IPC: 0.36704 cumulative IPC: 0.35963 (Simulation time: 0 hr 7 min 36 sec) 
Heartbeat CPU  3 instructions:   70000003 cycles:   65577078 heartbeat IPC: 0.34233 cumulative IPC: 0.28248 (Simulation time: 0 hr 7 min 38 sec) 
Heartbeat CPU  2 instructions:   69000002 cycles:   66516400 heartbeat IPC: 0.31572 cumulative IPC: 0.36413 (Simulation time: 0 hr 7 min 41 sec) 
Heartbeat CPU  0 instructions:   71000002 cycles:   67214973 heartbeat IPC: 0.40113 cumulative IPC: 0.34871 (Simulation time: 0 hr 7 min 43 sec) 
Heartbeat CPU  1 instructions:   67000003 cycles:   67534863 heartbeat IPC: 0.39778 cumulative IPC: 0.36167 (Simulation time: 0 hr 7 min 44 sec) 
Heartbeat CPU  3 instructions:   71000001 cycles:   68351063 heartbeat IPC: 0.36049 cumulative IPC: 0.28701 (Simulation time: 0 hr 7 min 47 sec) 
Heartbeat CPU  2 instructions:   70000003 cycles:   69182293 heartbeat IPC: 0.37511 cumulative IPC: 0.36473 (Simulation time: 0 hr 7 min 49 sec) 
Heartbeat CPU  0 instructions:   72000000 cycles:   69891926 heartbeat IPC: 0.37356 cumulative IPC: 0.35006 (Simulation time: 0 hr 7 min 51 sec) 
Heartbeat CPU  1 instructions:   68000000 cycles:   70241663 heartbeat IPC: 0.36944 cumulative IPC: 0.36209 (Simulation time: 0 hr 7 min 52 sec) 
Heartbeat CPU  3 instructions:   72000000 cycles:   71065183 heartbeat IPC: 0.36844 cumulative IPC: 0.29138 (Simulation time: 0 hr 7 min 55 sec) 
Heartbeat CPU  2 instructions:   71000003 cycles:   71641312 heartbeat IPC: 0.40667 cumulative IPC: 0.36675 (Simulation time: 0 hr 7 min 57 sec) 
Heartbeat CPU  0 instructions:   73000000 cycles:   72816078 heartbeat IPC: 0.34198 cumulative IPC: 0.34961 (Simulation time: 0 hr 8 min 0 sec) 
Heartbeat CPU  1 instructions:   69000001 cycles:   73087997 heartbeat IPC: 0.35133 cumulative IPC: 0.36151 (Simulation time: 0 hr 8 min 1 sec) 
Heartbeat CPU  3 instructions:   73000002 cycles:   74074986 heartbeat IPC: 0.33225 cumulative IPC: 0.29368 (Simulation time: 0 hr 8 min 4 sec) 
Heartbeat CPU  2 instructions:   72000000 cycles:   74096785 heartbeat IPC: 0.40725 cumulative IPC: 0.36861 (Simulation time: 0 hr 8 min 4 sec) 
Heartbeat CPU  0 instructions:   74000002 cycles:   75333319 heartbeat IPC: 0.39726 cumulative IPC: 0.35180 (Simulation time: 0 hr 8 min 7 sec) 
Heartbeat CPU  1 instructions:   70000003 cycles:   76028290 heartbeat IPC: 0.34010 cumulative IPC: 0.36037 (Simulation time: 0 hr 8 min 10 sec) 
Heartbeat CPU  3 instructions:   74000003 cycles:   76698378 heartbeat IPC: 0.38119 cumulative IPC: 0.29777 (Simulation time: 0 hr 8 min 12 sec) 
Heartbeat CPU  2 instructions:   73000000 cycles:   77045127 heartbeat IPC: 0.33917 cumulative IPC: 0.36707 (Simulation time: 0 hr 8 min 13 sec) 
Heartbeat CPU  0 instructions:   75000002 cycles:   77761458 heartbeat IPC: 0.41184 cumulative IPC: 0.35435 (Simulation time: 0 hr 8 min 15 sec) 
Heartbeat CPU  1 instructions:   71000002 cycles:   79039743 heartbeat IPC: 0.33207 cumulative IPC: 0.35892 (Simulation time: 0 hr 8 min 19 sec) 
Heartbeat CPU  2 instructions:   74000003 cycles:   79483986 heartbeat IPC: 0.41003 cumulative IPC: 0.36885 (Simulation time: 0 hr 8 min 20 sec) 
Heartbeat CPU  0 instructions:   76000000 cycles:   79702056 heartbeat IPC: 0.51530 cumulative IPC: 0.35962 (Simulation time: 0 hr 8 min 21 sec) 
Heartbeat CPU  3 instructions:   75000002 cycles:   80506979 heartbeat IPC: 0.26256 cumulative IPC: 0.29553 (Simulation time: 0 hr 8 min 23 sec) 
Heartbeat CPU  1 instructions:   72000000 cycles:   81694379 heartbeat IPC: 0.37670 cumulative IPC: 0.35969 (Simulation time: 0 hr 8 min 27 sec) 
Heartbeat CPU  2 instructions:   75000002 cycles:   81935177 heartbeat IPC: 0.40796 cumulative IPC: 0.37041 (Simulation time: 0 hr 8 min 28 sec) 
Heartbeat CPU  0 instructions:   77000001 cycles:   82583445 heartbeat IPC: 0.34706 cumulative IPC: 0.35904 (Simulation time: 0 hr 8 min 30 sec) 
Heartbeat CPU  3 instructions:   76000000 cycles:   82711216 heartbeat IPC: 0.45367 cumulative IPC: 0.30114 (Simulation time: 0 hr 8 min 30 sec) 
Heartbeat CPU  1 instructions:   73000003 cycles:   84243310 heartbeat IPC: 0.39232 cumulative IPC: 0.36100 (Simulation time: 0 hr 8 min 35 sec) 
Heartbeat CPU  2 instructions:   76000000 cycles:   84265333 heartbeat IPC: 0.42915 cumulative IPC: 0.37256 (Simulation time: 0 hr 8 min 35 sec) 
Heartbeat CPU  0 instructions:   78000001 cycles:   85245253 heartbeat IPC: 0.37568 cumulative IPC: 0.35973 (Simulation time: 0 hr 8 min 38 sec) 
Heartbeat CPU  3 instructions:   77000002 cycles:   85458678 heartbeat IPC: 0.36397 cumulative IPC: 0.30380 (Simulation time: 0 hr 8 min 39 sec) 
Heartbeat CPU  2 instructions:   77000000 cycles:   86737374 heartbeat IPC: 0.40452 cumulative IPC: 0.37375 (Simulation time: 0 hr 8 min 43 sec) 
Heartbeat CPU  1 instructions:   74000003 cycles:   86859852 heartbeat IPC: 0.38218 cumulative IPC: 0.36183 (Simulation time: 0 hr 8 min 43 sec) 
Heartbeat CPU  3 instructions:   78000003 cycles:   87931174 heartbeat IPC: 0.40445 cumulative IPC: 0.30749 (Simulation time: 0 hr 8 min 47 sec) 
Heartbeat CPU  0 instructions:   79000000 cycles:   88017074 heartbeat IPC: 0.36077 cumulative IPC: 0.35977 (Simulation time: 0 hr 8 min 47 sec) 
Heartbeat CPU  1 instructions:   75000002 cycles:   89708738 heartbeat IPC: 0.35101 cumulative IPC: 0.36139 (Simulation time: 0 hr 8 min 52 sec) 
Heartbeat CPU  2 instructions:   78000001 cycles:   89954921 heartbeat IPC: 0.31080 cumulative IPC: 0.37083 (Simulation time: 0 hr 8 min 53 sec) 
Heartbeat CPU  3 instructions:   79000003 cycles:   90547924 heartbeat IPC: 0.38215 cumulative IPC: 0.31028 (Simulation time: 0 hr 8 min 55 sec) 
Heartbeat CPU  0 instructions:   80000000 cycles:   91028091 heartbeat IPC: 0.33211 cumulative IPC: 0.35859 (Simulation time: 0 hr 8 min 56 sec) 
Heartbeat CPU  2 instructions:   79000001 cycles:   92629763 heartbeat IPC: 0.37385 cumulative IPC: 0.37095 (Simulation time: 0 hr 9 min 1 sec) 
Heartbeat CPU  3 instructions:   80000000 cycles:   93080293 heartbeat IPC: 0.39489 cumulative IPC: 0.31323 (Simulation time: 0 hr 9 min 2 sec) 
Heartbeat CPU  1 instructions:   76000000 cycles:   93270727 heartbeat IPC: 0.28074 cumulative IPC: 0.35744 (Simulation time: 0 hr 9 min 3 sec) 
Heartbeat CPU  0 instructions:   81000001 cycles:   93650784 heartbeat IPC: 0.38129 cumulative IPC: 0.35940 (Simulation time: 0 hr 9 min 4 sec) 
Heartbeat CPU  2 instructions:   80000000 cycles:   95236184 heartbeat IPC: 0.38367 cumulative IPC: 0.37139 (Simulation time: 0 hr 9 min 9 sec) 
Heartbeat CPU  3 instructions:   81000000 cycles:   95708727 heartbeat IPC: 0.38045 cumulative IPC: 0.31558 (Simulation time: 0 hr 9 min 10 sec) 
Heartbeat CPU  1 instructions:   77000003 cycles:   96287090 heartbeat IPC: 0.33153 cumulative IPC: 0.35640 (Simulation time: 0 hr 9 min 12 sec) 
Heartbeat CPU  0 instructions:   82000003 cycles:   96614257 heartbeat IPC: 0.33744 cumulative IPC: 0.35855 (Simulation time: 0 hr 9 min 12 sec) 
Heartbeat CPU  2 instructions:   81000001 cycles:   98458680 heartbeat IPC: 0.31032 cumulative IPC: 0.36887 (Simulation time: 0 hr 9 min 18 sec) 
Heartbeat CPU  3 instructions:   82000001 cycles:   98485799 heartbeat IPC: 0.36009 cumulative IPC: 0.31717 (Simulation time: 0 hr 9 min 18 sec) 
Heartbeat CPU  1 instructions:   78000000 cycles:   99116536 heartbeat IPC: 0.35343 cumulative IPC: 0.35630 (Simulation time: 0 hr 9 min 20 sec) 
Heartbeat CPU  0 instructions:   83000002 cycles:   99204790 heartbeat IPC: 0.38602 cumulative IPC: 0.35945 (Simulation time: 0 hr 9 min 20 sec) 
Heartbeat CPU  2 instructions:   82000003 cycles:  100888802 heartbeat IPC: 0.41150 cumulative IPC: 0.37015 (Simulation time: 0 hr 9 min 25 sec) 
Heartbeat CPU  1 instructions:   79000002 cycles:  101637326 heartbeat IPC: 0.39670 cumulative IPC: 0.35755 (Simulation time: 0 hr 9 min 27 sec) 
Heartbeat CPU  0 instructions:   84000000 cycles:  102068804 heartbeat IPC: 0.34916 cumulative IPC: 0.35909 (Simulation time: 0 hr 9 min 28 sec) 
Heartbeat CPU  3 instructions:   83000002 cycles:  102729045 heartbeat IPC: 0.23567 cumulative IPC: 0.31296 (Simulation time: 0 hr 9 min 30 sec) 
Heartbeat CPU  2 instructions:   83000003 cycles:  103395503 heartbeat IPC: 0.39893 cumulative IPC: 0.37103 (Simulation time: 0 hr 9 min 32 sec) 
Heartbeat CPU  1 instructions:   80000000 cycles:  104277684 heartbeat IPC: 0.37874 cumulative IPC: 0.35822 (Simulation time: 0 hr 9 min 35 sec) 
Heartbeat CPU  0 instructions:   85000001 cycles:  104939539 heartbeat IPC: 0.34834 cumulative IPC: 0.35872 (Simulation time: 0 hr 9 min 37 sec) 
Heartbeat CPU  3 instructions:   84000000 cycles:  105695214 heartbeat IPC: 0.33713 cumulative IPC: 0.31380 (Simulation time: 0 hr 9 min 39 sec) 
Heartbeat CPU  2 instructions:   84000000 cycles:  105832321 heartbeat IPC: 0.41037 cumulative IPC: 0.37215 (Simulation time: 0 hr 9 min 39 sec) 
Heartbeat CPU  0 instructions:   86000001 cycles:  107414303 heartbeat IPC: 0.40408 cumulative IPC: 0.36002 (Simulation time: 0 hr 9 min 44 sec) 
Heartbeat CPU  1 instructions:   81000002 cycles:  107692514 heartbeat IPC: 0.29284 cumulative IPC: 0.35566 (Simulation time: 0 hr 9 min 45 sec) 
Heartbeat CPU  3 instructions:   85000000 cycles:  108235519 heartbeat IPC: 0.39365 cumulative IPC: 0.31612 (Simulation time: 0 hr 9 min 47 sec) 
Heartbeat CPU  2 instructions:   85000003 cycles:  108731364 heartbeat IPC: 0.34494 cumulative IPC: 0.37125 (Simulation time: 0 hr 9 min 48 sec) 
Heartbeat CPU  0 instructions:   87000000 cycles:  109879492 heartbeat IPC: 0.40565 cumulative IPC: 0.36128 (Simulation time: 0 hr 9 min 52 sec) 
Heartbeat CPU  1 instructions:   82000001 cycles:  110632028 heartbeat IPC: 0.34019 cumulative IPC: 0.35516 (Simulation time: 0 hr 9 min 54 sec) 
Heartbeat CPU  3 instructions:   86000001 cycles:  110906723 heartbeat IPC: 0.37436 cumulative IPC: 0.31784 (Simulation time: 0 hr 9 min 55 sec) 
Heartbeat CPU  2 instructions:   86000002 cycles:  111209692 heartbeat IPC: 0.40350 cumulative IPC: 0.37214 (Simulation time: 0 hr 9 min 55 sec) 
Heartbeat CPU  0 instructions:   88000000 cycles:  112684522 heartbeat IPC: 0.35650 cumulative IPC: 0.36113 (Simulation time: 0 hr 9 min 59 sec) 
Heartbeat CPU  3 instructions:   87000000 cycles:  113569384 heartbeat IPC: 0.37556 cumulative IPC: 0.31949 (Simulation time: 0 hr 10 min 2 sec) 
Heartbeat CPU  2 instructions:   87000000 cycles:  113642721 heartbeat IPC: 0.41101 cumulative IPC: 0.37315 (Simulation time: 0 hr 10 min 2 sec) 
Heartbeat CPU  0 instructions:   89000003 cycles:  115146033 heartbeat IPC: 0.40626 cumulative IPC: 0.36230 (Simulation time: 0 hr 10 min 6 sec) 
Heartbeat CPU  1 instructions:   83000001 cycles:  115747486 heartbeat IPC: 0.19549 cumulative IPC: 0.34658 (Simulation time: 0 hr 10 min 8 sec) 
Heartbeat CPU  2 instructions:   88000000 cycles:  116107727 heartbeat IPC: 0.40568 cumulative IPC: 0.37399 (Simulation time: 0 hr 10 min 9 sec) 
Heartbeat CPU  3 instructions:   88000000 cycles:  116281304 heartbeat IPC: 0.36874 cumulative IPC: 0.32088 (Simulation time: 0 hr 10 min 9 sec) 
Heartbeat CPU  0 instructions:   90000000 cycles:  118233305 heartbeat IPC: 0.32391 cumulative IPC: 0.36109 (Simulation time: 0 hr 10 min 15 sec) 
Heartbeat CPU  1 instructions:   84000000 cycles:  118431064 heartbeat IPC: 0.37264 cumulative IPC: 0.34729 (Simulation time: 0 hr 10 min 16 sec) 
Heartbeat CPU  2 instructions:   89000002 cycles:  118610494 heartbeat IPC: 0.39956 cumulative IPC: 0.37464 (Simulation time: 0 hr 10 min 16 sec) 
Heartbeat CPU  3 instructions:   89000002 cycles:  119338514 heartbeat IPC: 0.32710 cumulative IPC: 0.32108 (Simulation time: 0 hr 10 min 19 sec) 
Heartbeat CPU  0 instructions:   91000001 cycles:  120966318 heartbeat IPC: 0.36590 cumulative IPC: 0.36122 (Simulation time: 0 hr 10 min 24 sec) 
Heartbeat CPU  2 instructions:   90000001 cycles:  121013654 heartbeat IPC: 0.41612 cumulative IPC: 0.37564 (Simulation time: 0 hr 10 min 24 sec) 
Heartbeat CPU  1 instructions:   85000001 cycles:  121059895 heartbeat IPC: 0.38040 cumulative IPC: 0.34816 (Simulation time: 0 hr 10 min 24 sec) 
Heartbeat CPU  3 instructions:   90000003 cycles:  122246589 heartbeat IPC: 0.34387 cumulative IPC: 0.32173 (Simulation time: 0 hr 10 min 27 sec) 
Heartbeat CPU  0 instructions:   92000000 cycles:  123640130 heartbeat IPC: 0.37400 cumulative IPC: 0.36155 (Simulation time: 0 hr 10 min 30 sec) 
Heartbeat CPU  2 instructions:   91000003 cycles:  124498658 heartbeat IPC: 0.28694 cumulative IPC: 0.37266 (Simulation time: 0 hr 10 min 33 sec) 
Heartbeat CPU  3 instructions:   91000003 cycles:  125006785 heartbeat IPC: 0.36229 cumulative IPC: 0.32280 (Simulation time: 0 hr 10 min 34 sec) 
Heartbeat CPU  0 instructions:   93000002 cycles:  126259195 heartbeat IPC: 0.38182 cumulative IPC: 0.36205 (Simulation time: 0 hr 10 min 37 sec) 
Heartbeat CPU  2 instructions:   92000000 cycles:  127175347 heartbeat IPC: 0.37359 cumulative IPC: 0.37269 (Simulation time: 0 hr 10 min 40 sec) 
Heartbeat CPU  1 instructions:   86000001 cycles:  127239464 heartbeat IPC: 0.16182 cumulative IPC: 0.33737 (Simulation time: 0 hr 10 min 40 sec) 
Heartbeat CPU  3 instructions:   92000000 cycles:  127785926 heartbeat IPC: 0.35982 cumulative IPC: 0.32376 (Simulation time: 0 hr 10 min 41 sec) 
Heartbeat CPU  0 instructions:   94000002 cycles:  129219608 heartbeat IPC: 0.33779 cumulative IPC: 0.36139 (Simulation time: 0 hr 10 min 45 sec) 
Heartbeat CPU  2 instructions:   93000001 cycles:  129623291 heartbeat IPC: 0.40851 cumulative IPC: 0.37349 (Simulation time: 0 hr 10 min 46 sec) 
Heartbeat CPU  3 instructions:   93000001 cycles:  131192872 heartbeat IPC: 0.29352 cumulative IPC: 0.32283 (Simulation time: 0 hr 10 min 50 sec) 
Heartbeat CPU  0 instructions:   95000000 cycles:  131705867 heartbeat IPC: 0.40221 cumulative IPC: 0.36231 (Simulation time: 0 hr 10 min 52 sec) 
Heartbeat CPU  2 instructions:   94000003 cycles:  132527772 heartbeat IPC: 0.34430 cumulative IPC: 0.37273 (Simulation time: 0 hr 10 min 54 sec) 
Heartbeat CPU  1 instructions:   87000003 cycles:  133890503 heartbeat IPC: 0.15035 cumulative IPC: 0.32639 (Simulation time: 0 hr 10 min 57 sec) 
Heartbeat CPU  0 instructions:   96000000 cycles:  134503828 heartbeat IPC: 0.35740 cumulative IPC: 0.36219 (Simulation time: 0 hr 10 min 58 sec) 
Heartbeat CPU  3 instructions:   94000002 cycles:  134667580 heartbeat IPC: 0.28779 cumulative IPC: 0.32176 (Simulation time: 0 hr 10 min 59 sec) 
Heartbeat CPU  2 instructions:   95000002 cycles:  135004236 heartbeat IPC: 0.40380 cumulative IPC: 0.37340 (Simulation time: 0 hr 11 min 0 sec) 
Heartbeat CPU  0 instructions:   97000001 cycles:  137077959 heartbeat IPC: 0.38848 cumulative IPC: 0.36277 (Simulation time: 0 hr 11 min 6 sec) 
Heartbeat CPU  3 instructions:   95000002 cycles:  137164295 heartbeat IPC: 0.40053 cumulative IPC: 0.32345 (Simulation time: 0 hr 11 min 6 sec) 
Heartbeat CPU  2 instructions:   96000000 cycles:  137523272 heartbeat IPC: 0.39698 cumulative IPC: 0.37391 (Simulation time: 0 hr 11 min 7 sec) 
Heartbeat CPU  0 instructions:   98000003 cycles:  139460558 heartbeat IPC: 0.41971 cumulative IPC: 0.36391 (Simulation time: 0 hr 11 min 12 sec) 
Heartbeat CPU  3 instructions:   96000000 cycles:  139681031 heartbeat IPC: 0.39734 cumulative IPC: 0.32501 (Simulation time: 0 hr 11 min 13 sec) 
Heartbeat CPU  2 instructions:   97000003 cycles:  140056484 heartbeat IPC: 0.39476 cumulative IPC: 0.37435 (Simulation time: 0 hr 11 min 14 sec) 
Heartbeat CPU  1 instructions:   88000000 cycles:  140381723 heartbeat IPC: 0.15405 cumulative IPC: 0.31706 (Simulation time: 0 hr 11 min 15 sec) 
Heartbeat CPU  0 instructions:   99000000 cycles:  142279308 heartbeat IPC: 0.35477 cumulative IPC: 0.36370 (Simulation time: 0 hr 11 min 20 sec) 
Heartbeat CPU  2 instructions:   98000003 cycles:  142285000 heartbeat IPC: 0.44873 cumulative IPC: 0.37572 (Simulation time: 0 hr 11 min 20 sec) 
Heartbeat CPU  3 instructions:   97000002 cycles:  143039318 heartbeat IPC: 0.29777 cumulative IPC: 0.32426 (Simulation time: 0 hr 11 min 22 sec) 
Heartbeat CPU  1 instructions:   89000000 cycles:  143126639 heartbeat IPC: 0.36431 cumulative IPC: 0.31812 (Simulation time: 0 hr 11 min 22 sec) 
*** Reached end of trace for Core: 0 Repeating trace: /data3/CASSANDRA/traces/cassandra_phase0_core0.trace.xz
Heartbeat CPU  0 instructions:  100000000 cycles:  145025841 heartbeat IPC: 0.36410 cumulative IPC: 0.36370 (Simulation time: 0 hr 11 min 27 sec) 
Heartbeat CPU  2 instructions:   99000000 cycles:  145119516 heartbeat IPC: 0.35279 cumulative IPC: 0.37519 (Simulation time: 0 hr 11 min 27 sec) 
Heartbeat CPU  1 instructions:   90000003 cycles:  146204774 heartbeat IPC: 0.32487 cumulative IPC: 0.31828 (Simulation time: 0 hr 11 min 30 sec) 
Heartbeat CPU  3 instructions:   98000001 cycles:  146829483 heartbeat IPC: 0.26384 cumulative IPC: 0.32245 (Simulation time: 0 hr 11 min 32 sec) 
*** Reached end of trace for Core: 2 Repeating trace: /data3/CASSANDRA/traces/cassandra_phase0_core2.trace.xz
Heartbeat CPU  2 instructions:  100000000 cycles:  147888757 heartbeat IPC: 0.36111 cumulative IPC: 0.37489 (Simulation time: 0 hr 11 min 35 sec) 
Heartbeat CPU  1 instructions:   91000002 cycles:  148833854 heartbeat IPC: 0.38036 cumulative IPC: 0.31956 (Simulation time: 0 hr 11 min 38 sec) 
Heartbeat CPU  0 instructions:  101000000 cycles:  149165864 heartbeat IPC: 0.24154 cumulative IPC: 0.35977 (Simulation time: 0 hr 11 min 39 sec) 
Heartbeat CPU  3 instructions:   99000002 cycles:  149431119 heartbeat IPC: 0.38437 cumulative IPC: 0.32370 (Simulation time: 0 hr 11 min 39 sec) 
Heartbeat CPU  2 instructions:  101000003 cycles:  151085415 heartbeat IPC: 0.31283 cumulative IPC: 0.37337 (Simulation time: 0 hr 11 min 44 sec) 
Heartbeat CPU  0 instructions:  102000002 cycles:  151953796 heartbeat IPC: 0.35869 cumulative IPC: 0.35975 (Simulation time: 0 hr 11 min 47 sec) 
*** Reached end of trace for Core: 3 Repeating trace: /data3/CASSANDRA/traces/cassandra_phase0_core3.trace.xz
Heartbeat CPU  3 instructions:  100000000 cycles:  152050597 heartbeat IPC: 0.38175 cumulative IPC: 0.32486 (Simulation time: 0 hr 11 min 47 sec) 
Heartbeat CPU  1 instructions:   92000000 cycles:  153246873 heartbeat IPC: 0.22660 cumulative IPC: 0.31646 (Simulation time: 0 hr 11 min 50 sec) 
Heartbeat CPU  2 instructions:  102000003 cycles:  153616345 heartbeat IPC: 0.39511 cumulative IPC: 0.37378 (Simulation time: 0 hr 11 min 51 sec) 
Heartbeat CPU  3 instructions:  101000003 cycles:  154579115 heartbeat IPC: 0.39549 cumulative IPC: 0.32619 (Simulation time: 0 hr 11 min 54 sec) 
Heartbeat CPU  2 instructions:  103000000 cycles:  156224346 heartbeat IPC: 0.38343 cumulative IPC: 0.37397 (Simulation time: 0 hr 11 min 58 sec) 
Heartbeat CPU  0 instructions:  103000003 cycles:  156308006 heartbeat IPC: 0.22966 cumulative IPC: 0.35558 (Simulation time: 0 hr 11 min 59 sec) 
Heartbeat CPU  1 instructions:   93000003 cycles:  156367875 heartbeat IPC: 0.32041 cumulative IPC: 0.31656 (Simulation time: 0 hr 11 min 59 sec) 
Heartbeat CPU  3 instructions:  102000000 cycles:  157112942 heartbeat IPC: 0.39466 cumulative IPC: 0.32746 (Simulation time: 0 hr 12 min 1 sec) 
Heartbeat CPU  0 instructions:  104000000 cycles:  159146690 heartbeat IPC: 0.35227 cumulative IPC: 0.35551 (Simulation time: 0 hr 12 min 7 sec) 
Heartbeat CPU  1 instructions:   94000003 cycles:  159259311 heartbeat IPC: 0.34585 cumulative IPC: 0.31717 (Simulation time: 0 hr 12 min 7 sec) 
Heartbeat CPU  3 instructions:  103000000 cycles:  159562345 heartbeat IPC: 0.40826 cumulative IPC: 0.32888 (Simulation time: 0 hr 12 min 8 sec) 
Heartbeat CPU  2 instructions:  104000000 cycles:  160880059 heartbeat IPC: 0.21479 cumulative IPC: 0.36869 (Simulation time: 0 hr 12 min 12 sec) 
Heartbeat CPU  1 instructions:   95000000 cycles:  161732352 heartbeat IPC: 0.40436 cumulative IPC: 0.31869 (Simulation time: 0 hr 12 min 14 sec) 
Heartbeat CPU  0 instructions:  105000001 cycles:  162045507 heartbeat IPC: 0.34497 cumulative IPC: 0.35529 (Simulation time: 0 hr 12 min 15 sec) 
Heartbeat CPU  3 instructions:  104000000 cycles:  162093870 heartbeat IPC: 0.39502 cumulative IPC: 0.33006 (Simulation time: 0 hr 12 min 15 sec) 
Heartbeat CPU  2 instructions:  105000002 cycles:  163453410 heartbeat IPC: 0.38860 cumulative IPC: 0.36905 (Simulation time: 0 hr 12 min 19 sec) 
Heartbeat CPU  1 instructions:   96000000 cycles:  164264967 heartbeat IPC: 0.39485 cumulative IPC: 0.32003 (Simulation time: 0 hr 12 min 22 sec) 
Heartbeat CPU  0 instructions:  106000000 cycles:  164672981 heartbeat IPC: 0.38059 cumulative IPC: 0.35576 (Simulation time: 0 hr 12 min 23 sec) 
Heartbeat CPU  3 instructions:  105000003 cycles:  164684192 heartbeat IPC: 0.38605 cumulative IPC: 0.33107 (Simulation time: 0 hr 12 min 23 sec) 
Heartbeat CPU  2 instructions:  106000002 cycles:  166016863 heartbeat IPC: 0.39010 cumulative IPC: 0.36942 (Simulation time: 0 hr 12 min 27 sec) 
Heartbeat CPU  1 instructions:   97000003 cycles:  166878391 heartbeat IPC: 0.38264 cumulative IPC: 0.32115 (Simulation time: 0 hr 12 min 30 sec) 
Heartbeat CPU  0 instructions:  107000001 cycles:  167318449 heartbeat IPC: 0.37801 cumulative IPC: 0.35616 (Simulation time: 0 hr 12 min 31 sec) 
Heartbeat CPU  3 instructions:  106000002 cycles:  167652519 heartbeat IPC: 0.33689 cumulative IPC: 0.33119 (Simulation time: 0 hr 12 min 32 sec) 
Heartbeat CPU  2 instructions:  107000000 cycles:  168589738 heartbeat IPC: 0.38867 cumulative IPC: 0.36975 (Simulation time: 0 hr 12 min 35 sec) 
Heartbeat CPU  1 instructions:   98000001 cycles:  169255095 heartbeat IPC: 0.42075 cumulative IPC: 0.32274 (Simulation time: 0 hr 12 min 37 sec) 
Heartbeat CPU  0 instructions:  108000000 cycles:  169850692 heartbeat IPC: 0.39491 cumulative IPC: 0.35681 (Simulation time: 0 hr 12 min 39 sec) 
Heartbeat CPU  3 instructions:  107000000 cycles:  170094378 heartbeat IPC: 0.40952 cumulative IPC: 0.33247 (Simulation time: 0 hr 12 min 39 sec) 
Heartbeat CPU  2 instructions:  108000000 cycles:  171748457 heartbeat IPC: 0.31658 cumulative IPC: 0.36864 (Simulation time: 0 hr 12 min 44 sec) 
Heartbeat CPU  1 instructions:   99000003 cycles:  171768704 heartbeat IPC: 0.39784 cumulative IPC: 0.32399 (Simulation time: 0 hr 12 min 44 sec) 
Heartbeat CPU  3 instructions:  108000000 cycles:  172432800 heartbeat IPC: 0.42764 cumulative IPC: 0.33393 (Simulation time: 0 hr 12 min 46 sec) 
Heartbeat CPU  0 instructions:  109000002 cycles:  172470481 heartbeat IPC: 0.38171 cumulative IPC: 0.35724 (Simulation time: 0 hr 12 min 47 sec) 
Heartbeat CPU  2 instructions:  109000000 cycles:  174397090 heartbeat IPC: 0.37755 cumulative IPC: 0.36879 (Simulation time: 0 hr 12 min 52 sec) 
*** Reached end of trace for Core: 1 Repeating trace: /data3/CASSANDRA/traces/cassandra_phase0_core1.trace.xz
Heartbeat CPU  1 instructions:  100000000 cycles:  174702721 heartbeat IPC: 0.34083 cumulative IPC: 0.32431 (Simulation time: 0 hr 12 min 53 sec) 
Heartbeat CPU  3 instructions:  109000002 cycles:  174740316 heartbeat IPC: 0.43337 cumulative IPC: 0.33542 (Simulation time: 0 hr 12 min 53 sec) 
Heartbeat CPU  0 instructions:  110000000 cycles:  175616129 heartbeat IPC: 0.31790 cumulative IPC: 0.35645 (Simulation time: 0 hr 12 min 56 sec) 
Heartbeat CPU  2 instructions:  110000000 cycles:  177282672 heartbeat IPC: 0.34655 cumulative IPC: 0.36838 (Simulation time: 0 hr 13 min 0 sec) 
Heartbeat CPU  3 instructions:  110000003 cycles:  177457814 heartbeat IPC: 0.36799 cumulative IPC: 0.33598 (Simulation time: 0 hr 13 min 1 sec) 
Heartbeat CPU  1 instructions:  101000001 cycles:  178111471 heartbeat IPC: 0.29336 cumulative IPC: 0.32364 (Simulation time: 0 hr 13 min 3 sec) 
Heartbeat CPU  0 instructions:  111000002 cycles:  178994444 heartbeat IPC: 0.29601 cumulative IPC: 0.35516 (Simulation time: 0 hr 13 min 5 sec) 
Heartbeat CPU  3 instructions:  111000000 cycles:  180307649 heartbeat IPC: 0.35090 cumulative IPC: 0.33625 (Simulation time: 0 hr 13 min 8 sec) 
Heartbeat CPU  2 instructions:  111000000 cycles:  180871253 heartbeat IPC: 0.27866 cumulative IPC: 0.36638 (Simulation time: 0 hr 13 min 10 sec) 
Heartbeat CPU  0 instructions:  112000000 cycles:  181252301 heartbeat IPC: 0.44290 cumulative IPC: 0.35639 (Simulation time: 0 hr 13 min 11 sec) 
Heartbeat CPU  3 instructions:  112000000 cycles:  182734266 heartbeat IPC: 0.41210 cumulative IPC: 0.33738 (Simulation time: 0 hr 13 min 15 sec) 
Heartbeat CPU  1 instructions:  102000001 cycles:  182905337 heartbeat IPC: 0.20860 cumulative IPC: 0.32025 (Simulation time: 0 hr 13 min 15 sec) 
Heartbeat CPU  2 instructions:  112000000 cycles:  183725984 heartbeat IPC: 0.35030 cumulative IPC: 0.36609 (Simulation time: 0 hr 13 min 18 sec) 
Heartbeat CPU  0 instructions:  113000002 cycles:  183967940 heartbeat IPC: 0.36824 cumulative IPC: 0.35659 (Simulation time: 0 hr 13 min 18 sec) 
Heartbeat CPU  1 instructions:  103000003 cycles:  185383469 heartbeat IPC: 0.40353 cumulative IPC: 0.32150 (Simulation time: 0 hr 13 min 23 sec) 
Heartbeat CPU  3 instructions:  113000000 cycles:  185533770 heartbeat IPC: 0.35721 cumulative IPC: 0.33772 (Simulation time: 0 hr 13 min 23 sec) 
Heartbeat CPU  2 instructions:  113000003 cycles:  186323971 heartbeat IPC: 0.38491 cumulative IPC: 0.36639 (Simulation time: 0 hr 13 min 25 sec) 
Heartbeat CPU  0 instructions:  114000000 cycles:  186869277 heartbeat IPC: 0.34467 cumulative IPC: 0.35638 (Simulation time: 0 hr 13 min 27 sec) 
Heartbeat CPU  1 instructions:  104000000 cycles:  187722968 heartbeat IPC: 0.42744 cumulative IPC: 0.32298 (Simulation time: 0 hr 13 min 30 sec) 
Heartbeat CPU  3 instructions:  114000001 cycles:  188320015 heartbeat IPC: 0.35891 cumulative IPC: 0.33807 (Simulation time: 0 hr 13 min 31 sec) 
Heartbeat CPU  2 instructions:  114000000 cycles:  189046985 heartbeat IPC: 0.36724 cumulative IPC: 0.36640 (Simulation time: 0 hr 13 min 34 sec) 
Heartbeat CPU  0 instructions:  115000001 cycles:  189609304 heartbeat IPC: 0.36496 cumulative IPC: 0.35652 (Simulation time: 0 hr 13 min 35 sec) 
Heartbeat CPU  1 instructions:  105000000 cycles:  190314314 heartbeat IPC: 0.38590 cumulative IPC: 0.32394 (Simulation time: 0 hr 13 min 37 sec) 
Heartbeat CPU  3 instructions:  115000002 cycles:  190800612 heartbeat IPC: 0.40313 cumulative IPC: 0.33902 (Simulation time: 0 hr 13 min 39 sec) 
Heartbeat CPU  2 instructions:  115000002 cycles:  191623013 heartbeat IPC: 0.38820 cumulative IPC: 0.36673 (Simulation time: 0 hr 13 min 41 sec) 
Heartbeat CPU  0 instructions:  116000000 cycles:  192325592 heartbeat IPC: 0.36815 cumulative IPC: 0.35670 (Simulation time: 0 hr 13 min 43 sec) 
Heartbeat CPU  1 instructions:  106000000 cycles:  192950526 heartbeat IPC: 0.37933 cumulative IPC: 0.32479 (Simulation time: 0 hr 13 min 45 sec) 
Heartbeat CPU  3 instructions:  116000000 cycles:  193273342 heartbeat IPC: 0.40441 cumulative IPC: 0.33996 (Simulation time: 0 hr 13 min 46 sec) 
Heartbeat CPU  2 instructions:  116000000 cycles:  194525550 heartbeat IPC: 0.34453 cumulative IPC: 0.36636 (Simulation time: 0 hr 13 min 50 sec) 
Heartbeat CPU  0 instructions:  117000001 cycles:  195351021 heartbeat IPC: 0.33053 cumulative IPC: 0.35625 (Simulation time: 0 hr 13 min 52 sec) 
Heartbeat CPU  3 instructions:  117000000 cycles:  196214895 heartbeat IPC: 0.33996 cumulative IPC: 0.33996 (Simulation time: 0 hr 13 min 54 sec) 
Heartbeat CPU  1 instructions:  107000002 cycles:  196595262 heartbeat IPC: 0.27437 cumulative IPC: 0.32374 (Simulation time: 0 hr 13 min 55 sec) 
Heartbeat CPU  2 instructions:  117000003 cycles:  197941180 heartbeat IPC: 0.29277 cumulative IPC: 0.36494 (Simulation time: 0 hr 13 min 59 sec) 
Heartbeat CPU  0 instructions:  118000003 cycles:  198077173 heartbeat IPC: 0.36682 cumulative IPC: 0.35641 (Simulation time: 0 hr 13 min 59 sec) 
Heartbeat CPU  3 instructions:  118000000 cycles:  198622003 heartbeat IPC: 0.41544 cumulative IPC: 0.34098 (Simulation time: 0 hr 14 min 1 sec) 
Heartbeat CPU  1 instructions:  108000000 cycles:  199915759 heartbeat IPC: 0.30116 cumulative IPC: 0.32333 (Simulation time: 0 hr 14 min 5 sec) 
Heartbeat CPU  2 instructions:  118000003 cycles:  200441935 heartbeat IPC: 0.39988 cumulative IPC: 0.36543 (Simulation time: 0 hr 14 min 7 sec) 
Heartbeat CPU  0 instructions:  119000000 cycles:  200650902 heartbeat IPC: 0.38854 cumulative IPC: 0.35687 (Simulation time: 0 hr 14 min 7 sec) 
Heartbeat CPU  3 instructions:  119000003 cycles:  201545774 heartbeat IPC: 0.34203 cumulative IPC: 0.34099 (Simulation time: 0 hr 14 min 10 sec) 
Heartbeat CPU  1 instructions:  109000000 cycles:  202834831 heartbeat IPC: 0.34257 cumulative IPC: 0.32363 (Simulation time: 0 hr 14 min 14 sec) 
Heartbeat CPU  2 instructions:  119000003 cycles:  203028398 heartbeat IPC: 0.38663 cumulative IPC: 0.36573 (Simulation time: 0 hr 14 min 14 sec) 
Heartbeat CPU  0 instructions:  120000000 cycles:  203302775 heartbeat IPC: 0.37709 cumulative IPC: 0.35716 (Simulation time: 0 hr 14 min 15 sec) 
Heartbeat CPU  3 instructions:  120000000 cycles:  203910114 heartbeat IPC: 0.42295 cumulative IPC: 0.34205 (Simulation time: 0 hr 14 min 17 sec) 
Heartbeat CPU  1 instructions:  110000002 cycles:  205465437 heartbeat IPC: 0.38014 cumulative IPC: 0.32444 (Simulation time: 0 hr 14 min 21 sec) 
Heartbeat CPU  0 instructions:  121000003 cycles:  205909984 heartbeat IPC: 0.38355 cumulative IPC: 0.35753 (Simulation time: 0 hr 14 min 23 sec) 
Heartbeat CPU  2 instructions:  120000000 cycles:  206115585 heartbeat IPC: 0.32392 cumulative IPC: 0.36503 (Simulation time: 0 hr 14 min 23 sec) 
Heartbeat CPU  3 instructions:  121000003 cycles:  206562187 heartbeat IPC: 0.37706 cumulative IPC: 0.34255 (Simulation time: 0 hr 14 min 25 sec) 
Heartbeat CPU  1 instructions:  111000003 cycles:  208453449 heartbeat IPC: 0.33467 cumulative IPC: 0.32460 (Simulation time: 0 hr 14 min 30 sec) 
Heartbeat CPU  0 instructions:  122000000 cycles:  208525925 heartbeat IPC: 0.38227 cumulative IPC: 0.35788 (Simulation time: 0 hr 14 min 30 sec) 
Heartbeat CPU  2 instructions:  121000002 cycles:  208777178 heartbeat IPC: 0.37572 cumulative IPC: 0.36519 (Simulation time: 0 hr 14 min 31 sec) 
Heartbeat CPU  3 instructions:  122000003 cycles:  209309857 heartbeat IPC: 0.36394 cumulative IPC: 0.34286 (Simulation time: 0 hr 14 min 33 sec) 
Heartbeat CPU  1 instructions:  112000000 cycles:  211067232 heartbeat IPC: 0.38259 cumulative IPC: 0.32540 (Simulation time: 0 hr 14 min 38 sec) 
Heartbeat CPU  2 instructions:  122000001 cycles:  211315929 heartbeat IPC: 0.39389 cumulative IPC: 0.36557 (Simulation time: 0 hr 14 min 39 sec) 
Heartbeat CPU  0 instructions:  123000001 cycles:  211444314 heartbeat IPC: 0.34266 cumulative IPC: 0.35765 (Simulation time: 0 hr 14 min 39 sec) 
Heartbeat CPU  3 instructions:  123000001 cycles:  211791929 heartbeat IPC: 0.40289 cumulative IPC: 0.34364 (Simulation time: 0 hr 14 min 40 sec) 
Heartbeat CPU  1 instructions:  113000003 cycles:  213666521 heartbeat IPC: 0.38472 cumulative IPC: 0.32620 (Simulation time: 0 hr 14 min 46 sec) 
Heartbeat CPU  2 instructions:  123000001 cycles:  213918964 heartbeat IPC: 0.38417 cumulative IPC: 0.36582 (Simulation time: 0 hr 14 min 47 sec) 
Heartbeat CPU  0 instructions:  124000000 cycles:  214507196 heartbeat IPC: 0.32649 cumulative IPC: 0.35715 (Simulation time: 0 hr 14 min 48 sec) 
Heartbeat CPU  3 instructions:  124000000 cycles:  214744887 heartbeat IPC: 0.33864 cumulative IPC: 0.34356 (Simulation time: 0 hr 14 min 49 sec) 
Heartbeat CPU  1 instructions:  114000001 cycles:  216385175 heartbeat IPC: 0.36783 cumulative IPC: 0.32677 (Simulation time: 0 hr 14 min 54 sec) 
Heartbeat CPU  2 instructions:  124000000 cycles:  216569398 heartbeat IPC: 0.37730 cumulative IPC: 0.36597 (Simulation time: 0 hr 14 min 54 sec) 
Heartbeat CPU  0 instructions:  125000000 cycles:  217186878 heartbeat IPC: 0.37318 cumulative IPC: 0.35737 (Simulation time: 0 hr 14 min 56 sec) 
Heartbeat CPU  3 instructions:  125000000 cycles:  217663991 heartbeat IPC: 0.34257 cumulative IPC: 0.34355 (Simulation time: 0 hr 14 min 58 sec) 
Heartbeat CPU  1 instructions:  115000000 cycles:  218951161 heartbeat IPC: 0.38971 cumulative IPC: 0.32759 (Simulation time: 0 hr 15 min 1 sec) 
Heartbeat CPU  2 instructions:  125000001 cycles:  219181968 heartbeat IPC: 0.38277 cumulative IPC: 0.36619 (Simulation time: 0 hr 15 min 2 sec) 
Heartbeat CPU  0 instructions:  126000001 cycles:  219859485 heartbeat IPC: 0.37417 cumulative IPC: 0.35760 (Simulation time: 0 hr 15 min 4 sec) 
Heartbeat CPU  3 instructions:  126000000 cycles:  220163698 heartbeat IPC: 0.40005 cumulative IPC: 0.34426 (Simulation time: 0 hr 15 min 5 sec) 
Heartbeat CPU  1 instructions:  116000000 cycles:  221507221 heartbeat IPC: 0.39123 cumulative IPC: 0.32840 (Simulation time: 0 hr 15 min 9 sec) 
Heartbeat CPU  2 instructions:  126000001 cycles:  221840100 heartbeat IPC: 0.37620 cumulative IPC: 0.36633 (Simulation time: 0 hr 15 min 10 sec) 
Heartbeat CPU  0 instructions:  127000001 cycles:  222521655 heartbeat IPC: 0.37563 cumulative IPC: 0.35784 (Simulation time: 0 hr 15 min 12 sec) 
Heartbeat CPU  3 instructions:  127000000 cycles:  222683976 heartbeat IPC: 0.39678 cumulative IPC: 0.34491 (Simulation time: 0 hr 15 min 13 sec) 
Heartbeat CPU  1 instructions:  117000000 cycles:  224422782 heartbeat IPC: 0.34299 cumulative IPC: 0.32860 (Simulation time: 0 hr 15 min 18 sec) 
Heartbeat CPU  2 instructions:  127000000 cycles:  224965255 heartbeat IPC: 0.31998 cumulative IPC: 0.36562 (Simulation time: 0 hr 15 min 19 sec) 
Heartbeat CPU  0 instructions:  128000000 cycles:  225133153 heartbeat IPC: 0.38292 cumulative IPC: 0.35816 (Simulation time: 0 hr 15 min 20 sec) 
Heartbeat CPU  3 instructions:  128000000 cycles:  225201874 heartbeat IPC: 0.39716 cumulative IPC: 0.34555 (Simulation time: 0 hr 15 min 20 sec) 
Heartbeat CPU  3 instructions:  129000003 cycles:  227735868 heartbeat IPC: 0.39464 cumulative IPC: 0.34615 (Simulation time: 0 hr 15 min 26 sec) 
Heartbeat CPU  0 instructions:  129000003 cycles:  227787352 heartbeat IPC: 0.37676 cumulative IPC: 0.35839 (Simulation time: 0 hr 15 min 27 sec) 
Heartbeat CPU  1 instructions:  118000001 cycles:  227803857 heartbeat IPC: 0.29576 cumulative IPC: 0.32807 (Simulation time: 0 hr 15 min 27 sec) 
Heartbeat CPU  2 instructions:  128000000 cycles:  229411477 heartbeat IPC: 0.22491 cumulative IPC: 0.36262 (Simulation time: 0 hr 15 min 31 sec) 
Heartbeat CPU  0 instructions:  130000001 cycles:  230459828 heartbeat IPC: 0.37418 cumulative IPC: 0.35859 (Simulation time: 0 hr 15 min 34 sec) 
Heartbeat CPU  1 instructions:  119000001 cycles:  230667370 heartbeat IPC: 0.34922 cumulative IPC: 0.32836 (Simulation time: 0 hr 15 min 35 sec) 
Heartbeat CPU  3 instructions:  130000002 cycles:  230897575 heartbeat IPC: 0.31628 cumulative IPC: 0.34571 (Simulation time: 0 hr 15 min 35 sec) 
Heartbeat CPU  2 instructions:  129000001 cycles:  232461954 heartbeat IPC: 0.32782 cumulative IPC: 0.36212 (Simulation time: 0 hr 15 min 40 sec) 
Heartbeat CPU  3 instructions:  131000001 cycles:  233378698 heartbeat IPC: 0.40304 cumulative IPC: 0.34637 (Simulation time: 0 hr 15 min 43 sec) 
Heartbeat CPU  0 instructions:  131000003 cycles:  233427483 heartbeat IPC: 0.33697 cumulative IPC: 0.35829 (Simulation time: 0 hr 15 min 43 sec) 
Heartbeat CPU  1 instructions:  120000000 cycles:  233582859 heartbeat IPC: 0.34300 cumulative IPC: 0.32856 (Simulation time: 0 hr 15 min 43 sec) 
Heartbeat CPU  2 instructions:  130000001 cycles:  235126754 heartbeat IPC: 0.37526 cumulative IPC: 0.36228 (Simulation time: 0 hr 15 min 48 sec) 
Heartbeat CPU  3 instructions:  132000000 cycles:  236256479 heartbeat IPC: 0.34749 cumulative IPC: 0.34639 (Simulation time: 0 hr 15 min 51 sec) 
Heartbeat CPU  1 instructions:  121000002 cycles:  236257585 heartbeat IPC: 0.37387 cumulative IPC: 0.32912 (Simulation time: 0 hr 15 min 51 sec) 
Heartbeat CPU  0 instructions:  132000000 cycles:  236260778 heartbeat IPC: 0.35294 cumulative IPC: 0.35822 (Simulation time: 0 hr 15 min 51 sec) 
Heartbeat CPU  2 instructions:  131000001 cycles:  238046051 heartbeat IPC: 0.34255 cumulative IPC: 0.36202 (Simulation time: 0 hr 15 min 56 sec) 
Heartbeat CPU  0 instructions:  133000003 cycles:  238785177 heartbeat IPC: 0.39614 cumulative IPC: 0.35866 (Simulation time: 0 hr 15 min 58 sec) 
Heartbeat CPU  3 instructions:  133000003 cycles:  239204063 heartbeat IPC: 0.33926 cumulative IPC: 0.34629 (Simulation time: 0 hr 16 min 0 sec) 
Heartbeat CPU  1 instructions:  122000001 cycles:  240754944 heartbeat IPC: 0.22235 cumulative IPC: 0.32694 (Simulation time: 0 hr 16 min 3 sec) 
Heartbeat CPU  2 instructions:  132000000 cycles:  241641629 heartbeat IPC: 0.27812 cumulative IPC: 0.36066 (Simulation time: 0 hr 16 min 5 sec) 
Heartbeat CPU  0 instructions:  134000000 cycles:  242169849 heartbeat IPC: 0.29545 cumulative IPC: 0.35770 (Simulation time: 0 hr 16 min 7 sec) 
Heartbeat CPU  3 instructions:  134000000 cycles:  242337039 heartbeat IPC: 0.31918 cumulative IPC: 0.34591 (Simulation time: 0 hr 16 min 7 sec) 
[...]
Core_0_LLC_acc_level_2 54270
Core_0_LLC_acc_level_3 25843
Core_0_LLC_acc_level_4 9511
Core_0_LLC_acc_level_5 19936
Core_0_LLC_acc_level_6 6059
Core_0_LLC_acc_level_7 3407
Core_0_LLC_acc_level_8 1774
Core_0_LLC_acc_level_9 8568

Core_0_major_page_fault 0
Core_0_minor_page_fault 42336

Core_1_instructions 150000001
Core_1_cycles 458761118
Core_1_IPC 0.32697

Core_1_branch_prediction_accuracy 96.39335
Core_1_branch_MPKI 4.59880
Core_1_average_ROB_occupancy_at_mispredict 74.02347

Core_1_L1D_total_access 15234974
Core_1_L1D_total_hit 13654928
Core_1_L1D_total_miss 1580046
Core_1_L1D_loads 9992811
Core_1_L1D_load_hit 8602848
Core_1_L1D_load_miss 1389963
Core_1_L1D_RFOs 5242163
Core_1_L1D_RFO_hit 5052080
Core_1_L1D_RFO_miss 190083
Core_1_L1D_prefetches 0
Core_1_L1D_prefetch_hit 0
Core_1_L1D_prefetch_miss 0
Core_1_L1D_writebacks 0
Core_1_L1D_writeback_hit 0
Core_1_L1D_writeback_miss 0
Core_1_L1D_prefetch_requested 0
Core_1_L1D_prefetch_dropped 0
Core_1_L1D_prefetch_issued 0
Core_1_L1D_prefetch_filled 0
Core_1_L1D_prefetch_useful 0
Core_1_L1D_prefetch_useless 0
Core_1_L1D_prefetch_late 0
Core_1_L1D_average_miss_latency 148.03339

Core_1_L1D_rq_access 17863678
Core_1_L1D_rq_forward 0
Core_1_L1D_rq_merged 7466291
Core_1_L1D_rq_to_cache 10397063
Core_1_L1D_rq_full 0

Core_1_L1D_wq_access 5892331
Core_1_L1D_wq_forward 324
Core_1_L1D_wq_merged 112476
Core_1_L1D_wq_to_cache 5779855
Core_1_L1D_wq_full 0

Core_1_L1D_pq_access 0
Core_1_L1D_pq_forward 0
Core_1_L1D_pq_merged 0
Core_1_L1D_pq_to_cache 0
Core_1_L1D_pq_full 0

Core_1_L1D_acc_epochs 213623
Core_1_L1D_acc_level_0 213623
Core_1_L1D_acc_level_1 0
Core_1_L1D_acc_level_2 0
Core_1_L1D_acc_level_3 0
Core_1_L1D_acc_level_4 0
Core_1_L1D_acc_level_5 0
Core_1_L1D_acc_level_6 0
Core_1_L1D_acc_level_7 0
Core_1_L1D_acc_level_8 0
Core_1_L1D_acc_level_9 0

Core_1_L1I_total_access 29968857
Core_1_L1I_total_hit 29081796
Core_1_L1I_total_miss 887061
Core_1_L1I_loads 29968857
Core_1_L1I_load_hit 29081796
Core_1_L1I_load_miss 887061
Core_1_L1I_RFOs 0
Core_1_L1I_RFO_hit 0
Core_1_L1I_RFO_miss 0
Core_1_L1I_prefetches 0
Core_1_L1I_prefetch_hit 0
Core_1_L1I_prefetch_miss 0
Core_1_L1I_writebacks 0
Core_1_L1I_writeback_hit 0
Core_1_L1I_writeback_miss 0
Core_1_L1I_prefetch_requested 0
Core_1_L1I_prefetch_dropped 0
Core_1_L1I_prefetch_issued 0
Core_1_L1I_prefetch_filled 0
Core_1_L1I_prefetch_useful 0
Core_1_L1I_prefetch_useless 0
Core_1_L1I_prefetch_late 0
Core_1_L1I_average_miss_latency 66.00448

Core_1_L1I_rq_access 149999788
Core_1_L1I_rq_forward 0
Core_1_L1I_rq_merged 119562613
Core_1_L1I_rq_to_cache 30437175
Core_1_L1I_rq_full 0

Core_1_L1I_wq_access 0
Core_1_L1I_wq_forward 0
Core_1_L1I_wq_merged 0
Core_1_L1I_wq_to_cache 0
Core_1_L1I_wq_full 0

Core_1_L1I_pq_access 0
Core_1_L1I_pq_forward 0
Core_1_L1I_pq_merged 0
Core_1_L1I_pq_to_cache 0
Core_1_L1I_pq_full 0

Core_1_L1I_acc_epochs 213623
Core_1_L1I_acc_level_0 213623
Core_1_L1I_acc_level_1 0
Core_1_L1I_acc_level_2 0
Core_1_L1I_acc_level_3 0
Core_1_L1I_acc_level_4 0
Core_1_L1I_acc_level_5 0
Core_1_L1I_acc_level_6 0
Core_1_L1I_acc_level_7 0
Core_1_L1I_acc_level_8 0
Core_1_L1I_acc_level_9 0

Core_1_L2C_total_access 4097120
Core_1_L2C_total_hit 2202996
Core_1_L2C_total_miss 1894124
Core_1_L2C_loads 2277010
Core_1_L2C_load_hit 1196810
Core_1_L2C_load_miss 1080200
Core_1_L2C_RFOs 190044
Core_1_L2C_RFO_hit 50597
Core_1_L2C_RFO_miss 139447
Core_1_L2C_prefetches 1154309
Core_1_L2C_prefetch_hit 484668
Core_1_L2C_prefetch_miss 669641
Core_1_L2C_writebacks 475757
Core_1_L2C_writeback_hit 470921
Core_1_L2C_writeback_miss 4836
Core_1_L2C_prefetch_requested 2689951
Core_1_L2C_prefetch_dropped 0
Core_1_L2C_prefetch_issued 2689951
Core_1_L2C_prefetch_filled 890586
Core_1_L2C_prefetch_useful 691237
Core_1_L2C_prefetch_useless 198880
Core_1_L2C_prefetch_late 20914
Core_1_L2C_average_miss_latency 165.72293

Core_1_L2C_rq_access 2467107
Core_1_L2C_rq_forward 0
Core_1_L2C_rq_merged 0
Core_1_L2C_rq_to_cache 2467054
Core_1_L2C_rq_full 0

Core_1_L2C_wq_access 475757
Core_1_L2C_wq_forward 53
Core_1_L2C_wq_merged 0
Core_1_L2C_wq_to_cache 475757
Core_1_L2C_wq_full 0

Core_1_L2C_pq_access 2689951
Core_1_L2C_pq_forward 0
Core_1_L2C_pq_merged 0
Core_1_L2C_pq_to_cache 2689951
Core_1_L2C_pq_full 0

Core_1_L2C_acc_epochs 213623
Core_1_L2C_acc_level_0 40352
Core_1_L2C_acc_level_1 10542
Core_1_L2C_acc_level_2 10979
Core_1_L2C_acc_level_3 10807
Core_1_L2C_acc_level_4 9984
Core_1_L2C_acc_level_5 12486
Core_1_L2C_acc_level_6 11137
Core_1_L2C_acc_level_7 10376
Core_1_L2C_acc_level_8 10077
Core_1_L2C_acc_level_9 86883

Core_1_LLC_total_access 3085113
Core_1_LLC_total_hit 1574872
Core_1_LLC_total_miss 1510241
Core_1_LLC_loads 1060147
Core_1_LLC_load_hit 499249
Core_1_LLC_load_miss 560898
Core_1_LLC_RFOs 139437
Core_1_LLC_RFO_hit 54595
Core_1_LLC_RFO_miss 84842
Core_1_LLC_prefetches 1496995
Core_1_LLC_prefetch_hit 721434
Core_1_LLC_prefetch_miss 775561
Core_1_LLC_writebacks 388534
Core_1_LLC_writeback_hit 299594
Core_1_LLC_writeback_miss 88940
Core_1_LLC_prefetch_requested 0
Core_1_LLC_prefetch_dropped 0
Core_1_LLC_prefetch_issued 0
Core_1_LLC_prefetch_filled 4332549
Core_1_LLC_prefetch_useful 416965
Core_1_LLC_prefetch_useless 3863211
Core_1_LLC_prefetch_late 3518
Core_1_LLC_average_miss_latency 835.16003

Core_1_LLC_rq_access 4607205
Core_1_LLC_rq_forward 0
Core_1_LLC_rq_merged 0
Core_1_LLC_rq_to_cache 4607184
Core_1_LLC_rq_full 0

Core_1_LLC_wq_access 1507105
Core_1_LLC_wq_forward 24
Core_1_LLC_wq_merged 0
Core_1_LLC_wq_to_cache 1507105
Core_1_LLC_wq_full 0

Core_1_LLC_pq_access 8118211
Core_1_LLC_pq_forward 0
Core_1_LLC_pq_merged 0
Core_1_LLC_pq_to_cache 8118208
Core_1_LLC_pq_full 0

Core_1_LLC_acc_epochs 468059
Core_1_LLC_acc_level_0 238956
Core_1_LLC_acc_level_1 99735
Core_1_LLC_acc_level_2 54270
Core_1_LLC_acc_level_3 25843
Core_1_LLC_acc_level_4 9511
Core_1_LLC_acc_level_5 19936
Core_1_LLC_acc_level_6 6059
Core_1_LLC_acc_level_7 3407
Core_1_LLC_acc_level_8 1774
Core_1_LLC_acc_level_9 8568

Core_1_major_page_fault 0
Core_1_minor_page_fault 44990

Core_2_instructions 150000001
Core_2_cycles 415061328
Core_2_IPC 0.36139

Core_2_branch_prediction_accuracy 97.69576
Core_2_branch_MPKI 2.82272
Core_2_average_ROB_occupancy_at_mispredict 95.39391

Core_2_L1D_total_access 14478214
Core_2_L1D_total_hit 13139517
Core_2_L1D_total_miss 1338697
Core_2_L1D_loads 9671915
Core_2_L1D_load_hit 8460775
Core_2_L1D_load_miss 1211140
Core_2_L1D_RFOs 4806299
Core_2_L1D_RFO_hit 4678742
Core_2_L1D_RFO_miss 127557
Core_2_L1D_prefetches 0
Core_2_L1D_prefetch_hit 0
Core_2_L1D_prefetch_miss 0
Core_2_L1D_writebacks 0
Core_2_L1D_writeback_hit 0
Core_2_L1D_writeback_miss 0
Core_2_L1D_prefetch_requested 0
Core_2_L1D_prefetch_dropped 0
Core_2_L1D_prefetch_issued 0
Core_2_L1D_prefetch_filled 0
Core_2_L1D_prefetch_useful 0
Core_2_L1D_prefetch_useless 0
Core_2_L1D_prefetch_late 0
Core_2_L1D_average_miss_latency 175.61028

Core_2_L1D_rq_access 19040035
Core_2_L1D_rq_forward 0
Core_2_L1D_rq_merged 7931779
Core_2_L1D_rq_to_cache 11108011
Core_2_L1D_rq_full 0

Core_2_L1D_wq_access 5884410
Core_2_L1D_wq_forward 245
Core_2_L1D_wq_merged 120776
Core_2_L1D_wq_to_cache 5763634
Core_2_L1D_wq_full 0

Core_2_L1D_pq_access 0
Core_2_L1D_pq_forward 0
Core_2_L1D_pq_merged 0
Core_2_L1D_pq_to_cache 0
Core_2_L1D_pq_full 0

Core_2_L1D_acc_epochs 215478
Core_2_L1D_acc_level_0 215478
Core_2_L1D_acc_level_1 0
Core_2_L1D_acc_level_2 0
Core_2_L1D_acc_level_3 0
Core_2_L1D_acc_level_4 0
Core_2_L1D_acc_level_5 0
Core_2_L1D_acc_level_6 0
Core_2_L1D_acc_level_7 0
Core_2_L1D_acc_level_8 0
Core_2_L1D_acc_level_9 0

Core_2_L1I_total_access 30032470
Core_2_L1I_total_hit 29650145
Core_2_L1I_total_miss 382325
Core_2_L1I_loads 30032470
Core_2_L1I_load_hit 29650145
Core_2_L1I_load_miss 382325
Core_2_L1I_RFOs 0
Core_2_L1I_RFO_hit 0
Core_2_L1I_RFO_miss 0
Core_2_L1I_prefetches 0
Core_2_L1I_prefetch_hit 0
Core_2_L1I_prefetch_miss 0
Core_2_L1I_writebacks 0
Core_2_L1I_writeback_hit 0
Core_2_L1I_writeback_miss 0
Core_2_L1I_prefetch_requested 0
Core_2_L1I_prefetch_dropped 0
Core_2_L1I_prefetch_issued 0
Core_2_L1I_prefetch_filled 0
Core_2_L1I_prefetch_useful 0
Core_2_L1I_prefetch_useless 0
Core_2_L1I_prefetch_late 0
Core_2_L1I_average_miss_latency 92.37051

Core_2_L1I_rq_access 164767650
Core_2_L1I_rq_forward 0
Core_2_L1I_rq_merged 131516887
Core_2_L1I_rq_to_cache 33250763
Core_2_L1I_rq_full 0

Core_2_L1I_wq_access 0
Core_2_L1I_wq_forward 0
Core_2_L1I_wq_merged 0
Core_2_L1I_wq_to_cache 0
Core_2_L1I_wq_full 0

Core_2_L1I_pq_access 0
Core_2_L1I_pq_forward 0
Core_2_L1I_pq_merged 0
Core_2_L1I_pq_to_cache 0
Core_2_L1I_pq_full 0

Core_2_L1I_acc_epochs 215478
Core_2_L1I_acc_level_0 215478
Core_2_L1I_acc_level_1 0
Core_2_L1I_acc_level_2 0
Core_2_L1I_acc_level_3 0
Core_2_L1I_acc_level_4 0
Core_2_L1I_acc_level_5 0
Core_2_L1I_acc_level_6 0
Core_2_L1I_acc_level_7 0
Core_2_L1I_acc_level_8 0
Core_2_L1I_acc_level_9 0

Core_2_L2C_total_access 2837736
Core_2_L2C_total_hit 1240053
Core_2_L2C_total_miss 1597683
Core_2_L2C_loads 1593455
Core_2_L2C_load_hit 667801
Core_2_L2C_load_miss 925654
Core_2_L2C_RFOs 127545
Core_2_L2C_RFO_hit 20284
Core_2_L2C_RFO_miss 107261
Core_2_L2C_prefetches 756408
Core_2_L2C_prefetch_hit 194145
Core_2_L2C_prefetch_miss 562263
Core_2_L2C_writebacks 360328
Core_2_L2C_writeback_hit 357823
Core_2_L2C_writeback_miss 2505
Core_2_L2C_prefetch_requested 2425041
Core_2_L2C_prefetch_dropped 0
Core_2_L2C_prefetch_issued 2425041
Core_2_L2C_prefetch_filled 845212
Core_2_L2C_prefetch_useful 647561
Core_2_L2C_prefetch_useless 197218
Core_2_L2C_prefetch_late 23470
Core_2_L2C_average_miss_latency 204.54491

Core_2_L2C_rq_access 1934778
Core_2_L2C_rq_forward 0
Core_2_L2C_rq_merged 0
Core_2_L2C_rq_to_cache 1934754
Core_2_L2C_rq_full 0

Core_2_L2C_wq_access 406319
Core_2_L2C_wq_forward 24
Core_2_L2C_wq_merged 0
Core_2_L2C_wq_to_cache 406319
Core_2_L2C_wq_full 0

Core_2_L2C_pq_access 2425041
Core_2_L2C_pq_forward 0
Core_2_L2C_pq_merged 0
Core_2_L2C_pq_to_cache 2425041
Core_2_L2C_pq_full 0

Core_2_L2C_acc_epochs 215478
Core_2_L2C_acc_level_0 40930
Core_2_L2C_acc_level_1 9232
Core_2_L2C_acc_level_2 9922
Core_2_L2C_acc_level_3 10406
Core_2_L2C_acc_level_4 9542
Core_2_L2C_acc_level_5 11798
Core_2_L2C_acc_level_6 10493
Core_2_L2C_acc_level_7 9893
Core_2_L2C_acc_level_8 9912
Core_2_L2C_acc_level_9 93350

Core_2_LLC_total_access 2744816
Core_2_LLC_total_hit 1319986
Core_2_LLC_total_miss 1424830
Core_2_LLC_loads 905244
Core_2_LLC_load_hit 376620
Core_2_LLC_load_miss 528624
Core_2_LLC_RFOs 107256
Core_2_LLC_RFO_hit 34757
Core_2_LLC_RFO_miss 72499
Core_2_LLC_prefetches 1402513
Core_2_LLC_prefetch_hit 657513
Core_2_LLC_prefetch_miss 745000
Core_2_LLC_writebacks 329803
Core_2_LLC_writeback_hit 251096
Core_2_LLC_writeback_miss 78707
Core_2_LLC_prefetch_requested 0
Core_2_LLC_prefetch_dropped 0
Core_2_LLC_prefetch_issued 0
Core_2_LLC_prefetch_filled 4332549
Core_2_LLC_prefetch_useful 416965
Core_2_LLC_prefetch_useless 3863211
Core_2_LLC_prefetch_late 3518
Core_2_LLC_average_miss_latency 885.22344

Core_2_LLC_rq_access 4607205
Core_2_LLC_rq_forward 0
Core_2_LLC_rq_merged 0
Core_2_LLC_rq_to_cache 4607184
Core_2_LLC_rq_full 0

Core_2_LLC_wq_access 1507105
Core_2_LLC_wq_forward 24
Core_2_LLC_wq_merged 0
Core_2_LLC_wq_to_cache 1507105
Core_2_LLC_wq_full 0

Core_2_LLC_pq_access 8118211
Core_2_LLC_pq_forward 0
Core_2_LLC_pq_merged 0
Core_2_LLC_pq_to_cache 8118208
Core_2_LLC_pq_full 0

Core_2_LLC_acc_epochs 468059
Core_2_LLC_acc_level_0 238956
Core_2_LLC_acc_level_1 99735
Core_2_LLC_acc_level_2 54270
Core_2_LLC_acc_level_3 25843
Core_2_LLC_acc_level_4 9511
Core_2_LLC_acc_level_5 19936
Core_2_LLC_acc_level_6 6059
Core_2_LLC_acc_level_7 3407
Core_2_LLC_acc_level_8 1774
Core_2_LLC_acc_level_9 8568

Core_2_major_page_fault 0
Core_2_minor_page_fault 43118

Core_3_instructions 150000000
Core_3_cycles 435007803
Core_3_IPC 0.34482

Core_3_branch_prediction_accuracy 97.31940
Core_3_branch_MPKI 3.19834
Core_3_average_ROB_occupancy_at_mispredict 88.56955

Core_3_L1D_total_access 14655218
Core_3_L1D_total_hit 13199082
Core_3_L1D_total_miss 1456136
Core_3_L1D_loads 9692494
Core_3_L1D_load_hit 8390618
Core_3_L1D_load_miss 1301876
Core_3_L1D_RFOs 4962724
Core_3_L1D_RFO_hit 4808464
Core_3_L1D_RFO_miss 154260
Core_3_L1D_prefetches 0
Core_3_L1D_prefetch_hit 0
Core_3_L1D_prefetch_miss 0
Core_3_L1D_writebacks 0
Core_3_L1D_writeback_hit 0
Core_3_L1D_writeback_miss 0
Core_3_L1D_prefetch_requested 0
Core_3_L1D_prefetch_dropped 0
Core_3_L1D_prefetch_issued 0
Core_3_L1D_prefetch_filled 0
Core_3_L1D_prefetch_useful 0
Core_3_L1D_prefetch_useless 0
Core_3_L1D_prefetch_late 0
Core_3_L1D_average_miss_latency 165.24677

Core_3_L1D_rq_access 18582658
Core_3_L1D_rq_forward 0
Core_3_L1D_rq_merged 7889652
Core_3_L1D_rq_to_cache 10692809
Core_3_L1D_rq_full 0

Core_3_L1D_wq_access 5822344
Core_3_L1D_wq_forward 197
Core_3_L1D_wq_merged 122210
Core_3_L1D_wq_to_cache 5700134
Core_3_L1D_wq_full 0

Core_3_L1D_pq_access 0
Core_3_L1D_pq_forward 0
Core_3_L1D_pq_merged 0
Core_3_L1D_pq_to_cache 0
Core_3_L1D_pq_full 0

Core_3_L1D_acc_epochs 216000
Core_3_L1D_acc_level_0 216000
Core_3_L1D_acc_level_1 0
Core_3_L1D_acc_level_2 0
Core_3_L1D_acc_level_3 0
Core_3_L1D_acc_level_4 0
Core_3_L1D_acc_level_5 0
Core_3_L1D_acc_level_6 0
Core_3_L1D_acc_level_7 0
Core_3_L1D_acc_level_8 0
Core_3_L1D_acc_level_9 0

Core_3_L1I_total_access 29790307
Core_3_L1I_total_hit 29194216
Core_3_L1I_total_miss 596091
Core_3_L1I_loads 29790307
Core_3_L1I_load_hit 29194216
Core_3_L1I_load_miss 596091
Core_3_L1I_RFOs 0
Core_3_L1I_RFO_hit 0
Core_3_L1I_RFO_miss 0
Core_3_L1I_prefetches 0
Core_3_L1I_prefetch_hit 0
Core_3_L1I_prefetch_miss 0
Core_3_L1I_writebacks 0
Core_3_L1I_writeback_hit 0
Core_3_L1I_writeback_miss 0
Core_3_L1I_prefetch_requested 0
Core_3_L1I_prefetch_dropped 0
Core_3_L1I_prefetch_issued 0
Core_3_L1I_prefetch_filled 0
Core_3_L1I_prefetch_useful 0
Core_3_L1I_prefetch_useless 0
Core_3_L1I_prefetch_late 0
Core_3_L1I_average_miss_latency 77.07260

Core_3_L1I_rq_access 159048162
Core_3_L1I_rq_forward 0
Core_3_L1I_rq_merged 127075193
Core_3_L1I_rq_to_cache 31972969
Core_3_L1I_rq_full 0

Core_3_L1I_wq_access 0
Core_3_L1I_wq_forward 0
Core_3_L1I_wq_merged 0
Core_3_L1I_wq_to_cache 0
Core_3_L1I_wq_full 0

Core_3_L1I_pq_access 0
Core_3_L1I_pq_forward 0
Core_3_L1I_pq_merged 0
Core_3_L1I_pq_to_cache 0
Core_3_L1I_pq_full 0

Core_3_L1I_acc_epochs 216000
Core_3_L1I_acc_level_0 216000
Core_3_L1I_acc_level_1 0
Core_3_L1I_acc_level_2 0
Core_3_L1I_acc_level_3 0
Core_3_L1I_acc_level_4 0
Core_3_L1I_acc_level_5 0
Core_3_L1I_acc_level_6 0
Core_3_L1I_acc_level_7 0
Core_3_L1I_acc_level_8 0
Core_3_L1I_acc_level_9 0

Core_3_L2C_total_access 3374590
Core_3_L2C_total_hit 1668587
Core_3_L2C_total_miss 1706003
Core_3_L2C_loads 1897965
Core_3_L2C_load_hit 901091
Core_3_L2C_load_miss 996874
Core_3_L2C_RFOs 154234
Core_3_L2C_RFO_hit 28987
Core_3_L2C_RFO_miss 125247
Core_3_L2C_prefetches 921597
Core_3_L2C_prefetch_hit 341036
Core_3_L2C_prefetch_miss 580561
Core_3_L2C_writebacks 400794
Core_3_L2C_writeback_hit 397473
Core_3_L2C_writeback_miss 3321
Core_3_L2C_prefetch_requested 2554075
Core_3_L2C_prefetch_dropped 0
Core_3_L2C_prefetch_issued 2554075
Core_3_L2C_prefetch_filled 812353
Core_3_L2C_prefetch_useful 632981
Core_3_L2C_prefetch_useless 179213
Core_3_L2C_prefetch_late 20741
Core_3_L2C_average_miss_latency 187.73836

Core_3_L2C_rq_access 2143347
Core_3_L2C_rq_forward 0
Core_3_L2C_rq_merged 0
Core_3_L2C_rq_to_cache 2143316
Core_3_L2C_rq_full 0

Core_3_L2C_wq_access 418971
Core_3_L2C_wq_forward 32
Core_3_L2C_wq_merged 0
Core_3_L2C_wq_to_cache 418971
Core_3_L2C_wq_full 0

Core_3_L2C_pq_access 2554075
Core_3_L2C_pq_forward 0
Core_3_L2C_pq_merged 0
Core_3_L2C_pq_to_cache 2554074
Core_3_L2C_pq_full 0

Core_3_L2C_acc_epochs 216000
Core_3_L2C_acc_level_0 41794
Core_3_L2C_acc_level_1 10688
Core_3_L2C_acc_level_2 10853
Core_3_L2C_acc_level_3 10703
Core_3_L2C_acc_level_4 9675
Core_3_L2C_acc_level_5 12003
Core_3_L2C_acc_level_6 10494
Core_3_L2C_acc_level_7 9549
Core_3_L2C_acc_level_8 9499
Core_3_L2C_acc_level_9 90742

Core_3_LLC_total_access 2913634
Core_3_LLC_total_hit 1403420
Core_3_LLC_total_miss 1510214
Core_3_LLC_loads 977592
Core_3_LLC_load_hit 413240
Core_3_LLC_load_miss 564352
Core_3_LLC_RFOs 125239
Core_3_LLC_RFO_hit 40054
Core_3_LLC_RFO_miss 85185
Core_3_LLC_prefetches 1452287
Core_3_LLC_prefetch_hit 674421
Core_3_LLC_prefetch_miss 777866
Core_3_LLC_writebacks 358516
Core_3_LLC_writeback_hit 275705
Core_3_LLC_writeback_miss 82811
Core_3_LLC_prefetch_requested 0
Core_3_LLC_prefetch_dropped 0
Core_3_LLC_prefetch_issued 0
Core_3_LLC_prefetch_filled 4332549
Core_3_LLC_prefetch_useful 416965
Core_3_LLC_prefetch_useless 3863211
Core_3_LLC_prefetch_late 3518
Core_3_LLC_average_miss_latency 835.17496

Core_3_LLC_rq_access 4607205
Core_3_LLC_rq_forward 0
Core_3_LLC_rq_merged 0
Core_3_LLC_rq_to_cache 4607184
Core_3_LLC_rq_full 0

Core_3_LLC_wq_access 1507105
Core_3_LLC_wq_forward 24
Core_3_LLC_wq_merged 0
Core_3_LLC_wq_to_cache 1507105
Core_3_LLC_wq_full 0

Core_3_LLC_pq_access 8118211
Core_3_LLC_pq_forward 0
Core_3_LLC_pq_merged 0
Core_3_LLC_pq_to_cache 8118208
Core_3_LLC_pq_full 0

Core_3_LLC_acc_epochs 468059
Core_3_LLC_acc_level_0 238956
Core_3_LLC_acc_level_1 99735
Core_3_LLC_acc_level_2 54270
Core_3_LLC_acc_level_3 25843
Core_3_LLC_acc_level_4 9511
Core_3_LLC_acc_level_5 19936
Core_3_LLC_acc_level_6 6059
Core_3_LLC_acc_level_7 3407
Core_3_LLC_acc_level_8 1774
Core_3_LLC_acc_level_9 8568

Core_3_major_page_fault 0
Core_3_minor_page_fault 46807

[Bingo] PHT Access: 890140
[Bingo] PHT Hit PC+Addr: 150914
[Bingo] PHT Hit PC+Offs: 441909
[Bingo] PHT Miss: 297317
[Bingo] Prefetch PC+Addr: 0
[Bingo] Prefetch PC+Offs: 0
[Bingo] Useful PC+Addr: 0
[Bingo] Useful PC+Offs: 0
[Bingo] Useless PC+Addr: 0
[Bingo] Useless PC+Offs: 0
[Bingo] L1 Prefetch per Region: 0.00000
[Bingo] L2 Prefetch per Region: 2.95051
[Bingo] L3 Prefetch per Region: 2.06797
[Bingo] No Prefetch per Region: 26.98152
[Bingo] Number of Voters Mean: 6.66922
[Bingo] Number of Voters SD: 5.14945

[Bingo] PHT Access: 1012738
[Bingo] PHT Hit PC+Addr: 259229
[Bingo] PHT Hit PC+Offs: 403402
[Bingo] PHT Miss: 350107
[Bingo] Prefetch PC+Addr: 0
[Bingo] Prefetch PC+Offs: 0
[Bingo] Useful PC+Addr: 0
[Bingo] Useful PC+Offs: 0
[Bingo] Useless PC+Addr: 0
[Bingo] Useless PC+Offs: 0
[Bingo] L1 Prefetch per Region: 0.00000
[Bingo] L2 Prefetch per Region: 3.36749
[Bingo] L3 Prefetch per Region: 1.69790
[Bingo] No Prefetch per Region: 26.93461
[Bingo] Number of Voters Mean: 6.89556
[Bingo] Number of Voters SD: 5.13692

[Bingo] PHT Access: 901511
[Bingo] PHT Hit PC+Addr: 161913
[Bingo] PHT Hit PC+Offs: 422214
[Bingo] PHT Miss: 317384
[Bingo] Prefetch PC+Addr: 0
[Bingo] Prefetch PC+Offs: 0
[Bingo] Useful PC+Addr: 0
[Bingo] Useful PC+Offs: 0
[Bingo] Useless PC+Addr: 0
[Bingo] Useless PC+Offs: 0
[Bingo] L1 Prefetch per Region: 0.00000
[Bingo] L2 Prefetch per Region: 3.07737
[Bingo] L3 Prefetch per Region: 2.08124
[Bingo] No Prefetch per Region: 26.84139
[Bingo] Number of Voters Mean: 6.63185
[Bingo] Number of Voters SD: 4.98809

[Bingo] PHT Access: 942371
[Bingo] PHT Hit PC+Addr: 183340
[Bingo] PHT Hit PC+Offs: 446585
[Bingo] PHT Miss: 312446
[Bingo] Prefetch PC+Addr: 0
[Bingo] Prefetch PC+Offs: 0
[Bingo] Useful PC+Addr: 0
[Bingo] Useful PC+Offs: 0
[Bingo] Useless PC+Addr: 0
[Bingo] Useless PC+Offs: 0
[Bingo] L1 Prefetch per Region: 0.00000
[Bingo] L2 Prefetch per Region: 3.00498
[Bingo] L3 Prefetch per Region: 2.05401
[Bingo] No Prefetch per Region: 26.94101
[Bingo] Number of Voters Mean: 6.88702
[Bingo] Number of Voters SD: 5.00415

Channel_0_RQ_row_buffer_hit 498362
Channel_0_RQ_row_buffer_miss 2459652
Channel_0_WQ_row_buffer_hit 94001
Channel_0_WQ_row_buffer_miss 526611
Channel_0_WQ_full 0
Channel_0_dbus_congested 1368328

Channel_1_RQ_row_buffer_hit 483867
Channel_1_RQ_row_buffer_miss 2474957
Channel_1_WQ_row_buffer_hit 94622
Channel_1_WQ_row_buffer_miss 524209
Channel_1_WQ_full 0
Channel_1_dbus_congested 1351116

avg_congested_cycle 10

DRAM_bw_pochs 1872234
DRAM_bw_level_0 1598875
DRAM_bw_level_1 188161
DRAM_bw_level_2 46851
DRAM_bw_level_3 38347
