*************************************************
   ChampSim Multicore Out-of-Order Simulator
   Last compiled: Mar 31 2025 20:14:32
*************************************************
parsing config file: /data3/config/spp_ppf_dev.ini

trace_0 /data3/CASSANDRA/traces/cassandra_phase3_core0.trace.xz
trace_1 /data3/CASSANDRA/traces/cassandra_phase3_core1.trace.xz
trace_2 /data3/CASSANDRA/traces/cassandra_phase3_core2.trace.xz
trace_3 /data3/CASSANDRA/traces/cassandra_phase3_core3.trace.xz
adding L2C_PREFETCHER: SPP_PPF_dev
Initialize SIGNATURE TABLE
ST_SET: 1
ST_WAY: 256
ST_TAG_BIT: 16
ST_TAG_MASK: ffff

Initialize PATTERN TABLE
PT_SET: 2048
PT_WAY: 4
SIG_DELTA_BIT: 7
C_SIG_BIT: 4
C_DELTA_BIT: 4

Initialize PREFETCH FILTER
FILTER_SET: 1024

Initialize PERCEPTRON
PERC_ENTRIES: 4096
PERC_FEATURES: 9
Initialize SIGNATURE TABLE
ST_SET: 1
ST_WAY: 256
ST_TAG_BIT: 16
ST_TAG_MASK: ffff

Initialize PATTERN TABLE
PT_SET: 2048
PT_WAY: 4
SIG_DELTA_BIT: 7
C_SIG_BIT: 4
C_DELTA_BIT: 4

Initialize PREFETCH FILTER
FILTER_SET: 1024

Initialize PERCEPTRON
PERC_ENTRIES: 4096
PERC_FEATURES: 9
PERC_THRESH_HI: -5
PERC_THRESH_LO: -15

adding L2C_PREFETCHER: SPP_PPF_dev
Initialize SIGNATURE TABLE
ST_SET: 1
ST_WAY: 256
ST_TAG_BIT: 16
ST_TAG_MASK: ffff

Initialize PATTERN TABLE
PT_SET: 2048
PT_WAY: 4
SIG_DELTA_BIT: 7
C_SIG_BIT: 4
C_DELTA_BIT: 4

Initialize PREFETCH FILTER
FILTER_SET: 1024

Initialize PERCEPTRON
PERC_ENTRIES: 4096
PERC_FEATURES: 9
Initialize SIGNATURE TABLE
ST_SET: 1
ST_WAY: 256
ST_TAG_BIT: 16
ST_TAG_MASK: ffff

Initialize PATTERN TABLE
PT_SET: 2048
PT_WAY: 4
SIG_DELTA_BIT: 7
C_SIG_BIT: 4
C_DELTA_BIT: 4

Initialize PREFETCH FILTER
FILTER_SET: 1024

Initialize PERCEPTRON
PERC_ENTRIES: 4096
PERC_FEATURES: 9
PERC_THRESH_HI: -5
PERC_THRESH_LO: -15

adding L2C_PREFETCHER: SPP_PPF_dev
Initialize SIGNATURE TABLE
ST_SET: 1
ST_WAY: 256
ST_TAG_BIT: 16
ST_TAG_MASK: ffff

Initialize PATTERN TABLE
PT_SET: 2048
PT_WAY: 4
SIG_DELTA_BIT: 7
C_SIG_BIT: 4
C_DELTA_BIT: 4

Initialize PREFETCH FILTER
FILTER_SET: 1024

Initialize PERCEPTRON
PERC_ENTRIES: 4096
PERC_FEATURES: 9
Initialize SIGNATURE TABLE
ST_SET: 1
ST_WAY: 256
ST_TAG_BIT: 16
ST_TAG_MASK: ffff

Initialize PATTERN TABLE
PT_SET: 2048
PT_WAY: 4
SIG_DELTA_BIT: 7
C_SIG_BIT: 4
C_DELTA_BIT: 4

Initialize PREFETCH FILTER
FILTER_SET: 1024

Initialize PERCEPTRON
PERC_ENTRIES: 4096
PERC_FEATURES: 9
PERC_THRESH_HI: -5
PERC_THRESH_LO: -15

adding L2C_PREFETCHER: SPP_PPF_dev
Initialize SIGNATURE TABLE
ST_SET: 1
ST_WAY: 256
ST_TAG_BIT: 16
ST_TAG_MASK: ffff

Initialize PATTERN TABLE
PT_SET: 2048
PT_WAY: 4
SIG_DELTA_BIT: 7
C_SIG_BIT: 4
C_DELTA_BIT: 4

Initialize PREFETCH FILTER
FILTER_SET: 1024

Initialize PERCEPTRON
PERC_ENTRIES: 4096
PERC_FEATURES: 9
Initialize SIGNATURE TABLE
ST_SET: 1
ST_WAY: 256
ST_TAG_BIT: 16
ST_TAG_MASK: ffff

Initialize PATTERN TABLE
PT_SET: 2048
PT_WAY: 4
SIG_DELTA_BIT: 7
C_SIG_BIT: 4
C_DELTA_BIT: 4

Initialize PREFETCH FILTER
FILTER_SET: 1024

Initialize PERCEPTRON
PERC_ENTRIES: 4096
PERC_FEATURES: 9
PERC_THRESH_HI: -5
PERC_THRESH_LO: -15

Initialize SHIP state
warmup_instructions 50000000
simulation_instructions 150000000
champsim_seed 8754
measure_ipc 0
measure_ipc_epoch 1000
measure_dram_bw 1
measure_dram_bw_epoch 256
measure_cache_acc 1
measure_cache_acc_epoch 1024
l1d_perfect 0
l2c_perfect 0
llc_perfect 0
l1d_semi_perfect 0
l2c_semi_perfect 0
llc_semi_perfect 0
semi_perfect_cache_page_buffer_size 64

num_cpus 4
cpu_freq 4000
dram_io_freq 2400
page_size 4096
block_size 64
max_read_per_cycle 8
max_fill_per_cycle 1
dram_channels 2
log2_dram_channels 1
dram_ranks 1
dram_banks 8
dram_rows 65536
dram_columns 128
dram_row_size 8
dram_size 8192
dram_pages 2097152

fetch_width 6
decode_width 6
exec_width 4
lq_width 2
sq_width 2
retire_width 4
scheduler_size 128
branch_mispredict_penalty 20
rob_size 256
lq_size 72
sq_size 56
num_instr_destinations_sparc 4
num_instr_destinations 2
num_instr_sources 4

itlb_set 16
itlb_way 8
itlb_rq_size 16
itlb_wq_size 16
itlb_pq_size 0
itlb_mshr_size 8
itlb_latency 1

dtlb_set 16
dtlb_way 4
dtlb_rq_size 16
dtlb_wq_size 16
dtlb_pq_size 0
dtlb_mshr_size 8
dtlb_latency 1

stlb_set 128
stlb_way 12
stlb_rq_size 32
stlb_wq_size 32
stlb_pq_size 0
stlb_mshr_size 16
stlb_latency 8

l1i_size 32
l1i_set 64
l1i_way 8
l1i_rq_size 64
l1i_wq_size 64
l1i_pq_size 8
l1i_mshr_size 8
l1i_latency 1

l1d_size 32
l1d_set 64
l1d_way 8
l1d_rq_size 64
l1d_wq_size 64
l1d_pq_size 8
l1d_mshr_size 16
l1d_latency 4

l2c_size 256
l2c_set 512
l2c_way 8
l2c_rq_size 32
l2c_wq_size 32
l2c_pq_size 32
l2c_mshr_size 32
l2c_latency 10

llc_size 8192
llc_set 8192
llc_way 16
llc_rq_size 128
llc_wq_size 128
llc_pq_size 128
llc_mshr_size 256
llc_latency 20

dram_channel_width 8
dram_wq_size 64
dram_rq_size 64
tRP 15
tRCD 15
tCAS 12.5
dram_dbus_turn_around_time 30
dram_write_high_wm 56
dram_write_low_wm 48
min_dram_writes_per_switch 16
dram_mtps 2400
dram_dbus_return_time 13


Heartbeat CPU  0 instructions:    1000001 cycles:     325945 heartbeat IPC: 3.06801 cumulative IPC: 3.06801 (Simulation time: 0 hr 0 min 5 sec) 
Heartbeat CPU  2 instructions:    1000001 cycles:     404406 heartbeat IPC: 2.47276 cumulative IPC: 2.47276 (Simulation time: 0 hr 0 min 6 sec) 
Heartbeat CPU  3 instructions:    1000000 cycles:     467739 heartbeat IPC: 2.13794 cumulative IPC: 2.13794 (Simulation time: 0 hr 0 min 7 sec) 
Heartbeat CPU  1 instructions:    1000002 cycles:     480980 heartbeat IPC: 2.07909 cumulative IPC: 2.07909 (Simulation time: 0 hr 0 min 8 sec) 
Heartbeat CPU  0 instructions:    2000000 cycles:     655400 heartbeat IPC: 3.03531 cumulative IPC: 3.05157 (Simulation time: 0 hr 0 min 10 sec) 
Heartbeat CPU  2 instructions:    2000000 cycles:     731664 heartbeat IPC: 3.05569 cumulative IPC: 2.73350 (Simulation time: 0 hr 0 min 11 sec) 
Heartbeat CPU  3 instructions:    2000003 cycles:     798253 heartbeat IPC: 3.02560 cumulative IPC: 2.50548 (Simulation time: 0 hr 0 min 12 sec) 
Heartbeat CPU  0 instructions:    3000003 cycles:    1045902 heartbeat IPC: 2.56081 cumulative IPC: 2.86834 (Simulation time: 0 hr 0 min 16 sec) 
Heartbeat CPU  2 instructions:    3000000 cycles:    1058681 heartbeat IPC: 3.05795 cumulative IPC: 2.83371 (Simulation time: 0 hr 0 min 16 sec) 
Heartbeat CPU  3 instructions:    3000000 cycles:    1125105 heartbeat IPC: 3.05948 cumulative IPC: 2.66642 (Simulation time: 0 hr 0 min 17 sec) 
Heartbeat CPU  1 instructions:    2000003 cycles:    1186544 heartbeat IPC: 1.41731 cumulative IPC: 1.68557 (Simulation time: 0 hr 0 min 18 sec) 
Heartbeat CPU  0 instructions:    4000000 cycles:    1374322 heartbeat IPC: 3.04487 cumulative IPC: 2.91053 (Simulation time: 0 hr 0 min 22 sec) 
Heartbeat CPU  2 instructions:    4000000 cycles:    1383940 heartbeat IPC: 3.07447 cumulative IPC: 2.89030 (Simulation time: 0 hr 0 min 22 sec) 
Heartbeat CPU  3 instructions:    4000000 cycles:    1451586 heartbeat IPC: 3.06297 cumulative IPC: 2.75561 (Simulation time: 0 hr 0 min 23 sec) 
Heartbeat CPU  1 instructions:    3000003 cycles:    1700407 heartbeat IPC: 1.94604 cumulative IPC: 1.76429 (Simulation time: 0 hr 0 min 27 sec) 
Heartbeat CPU  2 instructions:    5000002 cycles:    1709421 heartbeat IPC: 3.07238 cumulative IPC: 2.92497 (Simulation time: 0 hr 0 min 27 sec) 
Heartbeat CPU  0 instructions:    5000003 cycles:    1711192 heartbeat IPC: 2.96851 cumulative IPC: 2.92194 (Simulation time: 0 hr 0 min 27 sec) 
Heartbeat CPU  3 instructions:    5000001 cycles:    1861766 heartbeat IPC: 2.43796 cumulative IPC: 2.68562 (Simulation time: 0 hr 0 min 29 sec) 
Heartbeat CPU  1 instructions:    4000000 cycles:    2024093 heartbeat IPC: 3.08940 cumulative IPC: 1.97619 (Simulation time: 0 hr 0 min 32 sec) 
Heartbeat CPU  2 instructions:    6000003 cycles:    2034559 heartbeat IPC: 3.07562 cumulative IPC: 2.94904 (Simulation time: 0 hr 0 min 32 sec) 
Heartbeat CPU  0 instructions:    6000001 cycles:    2178518 heartbeat IPC: 2.13983 cumulative IPC: 2.75417 (Simulation time: 0 hr 0 min 34 sec) 
Heartbeat CPU  3 instructions:    6000003 cycles:    2299067 heartbeat IPC: 2.28676 cumulative IPC: 2.60976 (Simulation time: 0 hr 0 min 36 sec) 
Heartbeat CPU  1 instructions:    5000000 cycles:    2349223 heartbeat IPC: 3.07569 cumulative IPC: 2.12836 (Simulation time: 0 hr 0 min 37 sec) 
Heartbeat CPU  0 instructions:    7000003 cycles:    2503286 heartbeat IPC: 3.07913 cumulative IPC: 2.79633 (Simulation time: 0 hr 0 min 39 sec) 
Heartbeat CPU  2 instructions:    7000002 cycles:    2600710 heartbeat IPC: 1.76631 cumulative IPC: 2.69157 (Simulation time: 0 hr 0 min 41 sec) 
Heartbeat CPU  3 instructions:    7000000 cycles:    2624206 heartbeat IPC: 3.07560 cumulative IPC: 2.66747 (Simulation time: 0 hr 0 min 41 sec) 
Heartbeat CPU  1 instructions:    6000001 cycles:    2709938 heartbeat IPC: 2.77227 cumulative IPC: 2.21407 (Simulation time: 0 hr 0 min 43 sec) 
Heartbeat CPU  0 instructions:    8000000 cycles:    2812294 heartbeat IPC: 3.23615 cumulative IPC: 2.84465 (Simulation time: 0 hr 0 min 45 sec) 
Heartbeat CPU  3 instructions:    8000000 cycles:    2949569 heartbeat IPC: 3.07349 cumulative IPC: 2.71226 (Simulation time: 0 hr 0 min 47 sec) 
Heartbeat CPU  2 instructions:    8000000 cycles:    2955002 heartbeat IPC: 2.82253 cumulative IPC: 2.70727 (Simulation time: 0 hr 0 min 47 sec) 
Heartbeat CPU  1 instructions:    7000000 cycles:    3036553 heartbeat IPC: 3.06171 cumulative IPC: 2.30525 (Simulation time: 0 hr 0 min 49 sec) 
Heartbeat CPU  0 instructions:    9000001 cycles:    3138372 heartbeat IPC: 3.06675 cumulative IPC: 2.86773 (Simulation time: 0 hr 0 min 51 sec) 
Heartbeat CPU  2 instructions:    9000001 cycles:    3276539 heartbeat IPC: 3.11006 cumulative IPC: 2.74680 (Simulation time: 0 hr 0 min 53 sec) 
Heartbeat CPU  3 instructions:    9000002 cycles:    3333851 heartbeat IPC: 2.60226 cumulative IPC: 2.69958 (Simulation time: 0 hr 0 min 54 sec) 
Heartbeat CPU  1 instructions:    8000000 cycles:    3360982 heartbeat IPC: 3.08234 cumulative IPC: 2.38026 (Simulation time: 0 hr 0 min 54 sec) 
Heartbeat CPU  0 instructions:   10000001 cycles:    3535163 heartbeat IPC: 2.52022 cumulative IPC: 2.82872 (Simulation time: 0 hr 0 min 57 sec) 
Heartbeat CPU  2 instructions:   10000001 cycles:    3598484 heartbeat IPC: 3.10612 cumulative IPC: 2.77895 (Simulation time: 0 hr 0 min 58 sec) 
Heartbeat CPU  3 instructions:   10000003 cycles:    3660620 heartbeat IPC: 3.06027 cumulative IPC: 2.73178 (Simulation time: 0 hr 0 min 59 sec) 
Heartbeat CPU  1 instructions:    9000002 cycles:    3681342 heartbeat IPC: 3.12149 cumulative IPC: 2.44476 (Simulation time: 0 hr 1 min 0 sec) 
Heartbeat CPU  2 instructions:   11000002 cycles:    3918515 heartbeat IPC: 3.12470 cumulative IPC: 2.80719 (Simulation time: 0 hr 1 min 4 sec) 
Heartbeat CPU  3 instructions:   11000001 cycles:    3986602 heartbeat IPC: 3.06765 cumulative IPC: 2.75924 (Simulation time: 0 hr 1 min 5 sec) 
Heartbeat CPU  1 instructions:   10000003 cycles:    4005743 heartbeat IPC: 3.08261 cumulative IPC: 2.49642 (Simulation time: 0 hr 1 min 5 sec) 
Heartbeat CPU  0 instructions:   11000003 cycles:    4042714 heartbeat IPC: 1.97025 cumulative IPC: 2.72095 (Simulation time: 0 hr 1 min 6 sec) 
Heartbeat CPU  0 instructions:   12000000 cycles:    4363842 heartbeat IPC: 3.11401 cumulative IPC: 2.74987 (Simulation time: 0 hr 1 min 11 sec) 
Heartbeat CPU  3 instructions:   12000000 cycles:    4371220 heartbeat IPC: 2.59998 cumulative IPC: 2.74523 (Simulation time: 0 hr 1 min 11 sec) 
Heartbeat CPU  2 instructions:   12000000 cycles:    4417223 heartbeat IPC: 2.00518 cumulative IPC: 2.71664 (Simulation time: 0 hr 1 min 12 sec) 
Heartbeat CPU  1 instructions:   11000000 cycles:    4425389 heartbeat IPC: 2.38295 cumulative IPC: 2.48566 (Simulation time: 0 hr 1 min 12 sec) 
Heartbeat CPU  0 instructions:   13000002 cycles:    4678477 heartbeat IPC: 3.17829 cumulative IPC: 2.77868 (Simulation time: 0 hr 1 min 16 sec) 
Heartbeat CPU  2 instructions:   13000000 cycles:    4785265 heartbeat IPC: 2.71708 cumulative IPC: 2.71667 (Simulation time: 0 hr 1 min 18 sec) 
Heartbeat CPU  1 instructions:   12000000 cycles:    4791705 heartbeat IPC: 2.72988 cumulative IPC: 2.50433 (Simulation time: 0 hr 1 min 18 sec) 
Heartbeat CPU  3 instructions:   13000002 cycles:    4827872 heartbeat IPC: 2.18986 cumulative IPC: 2.69270 (Simulation time: 0 hr 1 min 19 sec) 
Heartbeat CPU  2 instructions:   14000000 cycles:    5148323 heartbeat IPC: 2.75438 cumulative IPC: 2.71933 (Simulation time: 0 hr 1 min 23 sec) 
Heartbeat CPU  0 instructions:   14000002 cycles:    5158655 heartbeat IPC: 2.08256 cumulative IPC: 2.71389 (Simulation time: 0 hr 1 min 23 sec) 
Heartbeat CPU  3 instructions:   14000003 cycles:    5228530 heartbeat IPC: 2.49590 cumulative IPC: 2.67762 (Simulation time: 0 hr 1 min 24 sec) 
Heartbeat CPU  1 instructions:   13000001 cycles:    5459806 heartbeat IPC: 1.49678 cumulative IPC: 2.38104 (Simulation time: 0 hr 1 min 28 sec) 
Heartbeat CPU  2 instructions:   15000000 cycles:    5472869 heartbeat IPC: 3.08123 cumulative IPC: 2.74079 (Simulation time: 0 hr 1 min 28 sec) 
Heartbeat CPU  3 instructions:   15000001 cycles:    5555744 heartbeat IPC: 3.05610 cumulative IPC: 2.69991 (Simulation time: 0 hr 1 min 29 sec) 
Heartbeat CPU  0 instructions:   15000001 cycles:    5658435 heartbeat IPC: 2.00088 cumulative IPC: 2.65091 (Simulation time: 0 hr 1 min 31 sec) 
Heartbeat CPU  1 instructions:   14000002 cycles:    5780352 heartbeat IPC: 3.11968 cumulative IPC: 2.42200 (Simulation time: 0 hr 1 min 33 sec) 
Heartbeat CPU  2 instructions:   16000000 cycles:    5794595 heartbeat IPC: 3.10823 cumulative IPC: 2.76119 (Simulation time: 0 hr 1 min 33 sec) 
Heartbeat CPU  3 instructions:   16000000 cycles:    5957721 heartbeat IPC: 2.48770 cumulative IPC: 2.68559 (Simulation time: 0 hr 1 min 36 sec) 
Heartbeat CPU  0 instructions:   16000000 cycles:    6112919 heartbeat IPC: 2.20030 cumulative IPC: 2.61741 (Simulation time: 0 hr 1 min 38 sec) 
Heartbeat CPU  1 instructions:   15000000 cycles:    6150755 heartbeat IPC: 2.69976 cumulative IPC: 2.43872 (Simulation time: 0 hr 1 min 39 sec) 
Heartbeat CPU  2 instructions:   17000002 cycles:    6172611 heartbeat IPC: 2.64540 cumulative IPC: 2.75410 (Simulation time: 0 hr 1 min 39 sec) 
Heartbeat CPU  3 instructions:   17000003 cycles:    6321078 heartbeat IPC: 2.75212 cumulative IPC: 2.68942 (Simulation time: 0 hr 1 min 42 sec) 
Heartbeat CPU  1 instructions:   16000000 cycles:    6512761 heartbeat IPC: 2.76239 cumulative IPC: 2.45672 (Simulation time: 0 hr 1 min 45 sec) 
Heartbeat CPU  2 instructions:   18000003 cycles:    6543742 heartbeat IPC: 2.69447 cumulative IPC: 2.75072 (Simulation time: 0 hr 1 min 45 sec) 
Heartbeat CPU  0 instructions:   17000002 cycles:    6576087 heartbeat IPC: 2.15905 cumulative IPC: 2.58512 (Simulation time: 0 hr 1 min 46 sec) 
Heartbeat CPU  3 instructions:   18000000 cycles:    6644492 heartbeat IPC: 3.09200 cumulative IPC: 2.70901 (Simulation time: 0 hr 1 min 47 sec) 
Heartbeat CPU  1 instructions:   17000002 cycles:    6848923 heartbeat IPC: 2.97476 cumulative IPC: 2.48214 (Simulation time: 0 hr 1 min 51 sec) 
Heartbeat CPU  2 instructions:   19000002 cycles:    6869457 heartbeat IPC: 3.07017 cumulative IPC: 2.76587 (Simulation time: 0 hr 1 min 51 sec) 
Heartbeat CPU  0 instructions:   18000000 cycles:    6950066 heartbeat IPC: 2.67394 cumulative IPC: 2.58990 (Simulation time: 0 hr 1 min 53 sec) 
Heartbeat CPU  3 instructions:   19000003 cycles:    6967226 heartbeat IPC: 3.09854 cumulative IPC: 2.72705 (Simulation time: 0 hr 1 min 53 sec) 
Heartbeat CPU  2 instructions:   20000000 cycles:    7193672 heartbeat IPC: 3.08437 cumulative IPC: 2.78022 (Simulation time: 0 hr 1 min 57 sec) 
Heartbeat CPU  1 instructions:   18000000 cycles:    7252834 heartbeat IPC: 2.47579 cumulative IPC: 2.48179 (Simulation time: 0 hr 1 min 58 sec) 
Heartbeat CPU  0 instructions:   19000001 cycles:    7272775 heartbeat IPC: 3.09877 cumulative IPC: 2.61248 (Simulation time: 0 hr 1 min 58 sec) 
Heartbeat CPU  3 instructions:   20000000 cycles:    7290435 heartbeat IPC: 3.09396 cumulative IPC: 2.74332 (Simulation time: 0 hr 1 min 59 sec) 
Heartbeat CPU  1 instructions:   19000000 cycles:    7580025 heartbeat IPC: 3.05632 cumulative IPC: 2.50659 (Simulation time: 0 hr 2 min 3 sec) 
Heartbeat CPU  0 instructions:   20000000 cycles:    7655354 heartbeat IPC: 2.61384 cumulative IPC: 2.61255 (Simulation time: 0 hr 2 min 4 sec) 
Heartbeat CPU  2 instructions:   21000000 cycles:    7764790 heartbeat IPC: 1.75095 cumulative IPC: 2.70452 (Simulation time: 0 hr 2 min 6 sec) 
Heartbeat CPU  3 instructions:   21000000 cycles:    7774003 heartbeat IPC: 2.06796 cumulative IPC: 2.70131 (Simulation time: 0 hr 2 min 6 sec) 
Heartbeat CPU  1 instructions:   20000000 cycles:    7907525 heartbeat IPC: 3.05344 cumulative IPC: 2.52924 (Simulation time: 0 hr 2 min 8 sec) 
Heartbeat CPU  0 instructions:   21000002 cycles:    7977600 heartbeat IPC: 3.10323 cumulative IPC: 2.63237 (Simulation time: 0 hr 2 min 9 sec) 
Heartbeat CPU  0 instructions:   22000003 cycles:    8299692 heartbeat IPC: 3.10471 cumulative IPC: 2.65070 (Simulation time: 0 hr 2 min 14 sec) 
Heartbeat CPU  3 instructions:   22000001 cycles:    8303764 heartbeat IPC: 1.88765 cumulative IPC: 2.64940 (Simulation time: 0 hr 2 min 14 sec) 
Heartbeat CPU  2 instructions:   22000000 cycles:    8306504 heartbeat IPC: 1.84599 cumulative IPC: 2.64853 (Simulation time: 0 hr 2 min 14 sec) 
Heartbeat CPU  1 instructions:   21000000 cycles:    8351966 heartbeat IPC: 2.25002 cumulative IPC: 2.51438 (Simulation time: 0 hr 2 min 15 sec) 
Heartbeat CPU  0 instructions:   23000000 cycles:    8624661 heartbeat IPC: 3.07721 cumulative IPC: 2.66677 (Simulation time: 0 hr 2 min 20 sec) 
Heartbeat CPU  3 instructions:   23000001 cycles:    8626212 heartbeat IPC: 3.10128 cumulative IPC: 2.66629 (Simulation time: 0 hr 2 min 20 sec) 
Heartbeat CPU  1 instructions:   22000001 cycles:    8751387 heartbeat IPC: 2.50363 cumulative IPC: 2.51389 (Simulation time: 0 hr 2 min 22 sec) 
Heartbeat CPU  2 instructions:   23000002 cycles:    8755659 heartbeat IPC: 2.22641 cumulative IPC: 2.62687 (Simulation time: 0 hr 2 min 22 sec) 
Heartbeat CPU  3 instructions:   24000000 cycles:    8956652 heartbeat IPC: 3.02626 cumulative IPC: 2.67957 (Simulation time: 0 hr 2 min 25 sec) 
Heartbeat CPU  0 instructions:   24000000 cycles:    9080997 heartbeat IPC: 2.19137 cumulative IPC: 2.64288 (Simulation time: 0 hr 2 min 27 sec) 
Heartbeat CPU  1 instructions:   23000000 cycles:    9081459 heartbeat IPC: 3.02964 cumulative IPC: 2.53263 (Simulation time: 0 hr 2 min 27 sec) 
Heartbeat CPU  3 instructions:   25000001 cycles:    9331634 heartbeat IPC: 2.66680 cumulative IPC: 2.67906 (Simulation time: 0 hr 2 min 30 sec) 
Heartbeat CPU  2 instructions:   24000000 cycles:    9471389 heartbeat IPC: 1.39717 cumulative IPC: 2.53395 (Simulation time: 0 hr 2 min 32 sec) 
Heartbeat CPU  1 instructions:   24000000 cycles:    9495281 heartbeat IPC: 2.41650 cumulative IPC: 2.52757 (Simulation time: 0 hr 2 min 32 sec) 
Heartbeat CPU  0 instructions:   25000001 cycles:    9717230 heartbeat IPC: 1.57175 cumulative IPC: 2.57275 (Simulation time: 0 hr 2 min 36 sec) 
Heartbeat CPU  1 instructions:   25000002 cycles:    9852157 heartbeat IPC: 2.80210 cumulative IPC: 2.53752 (Simulation time: 0 hr 2 min 38 sec) 
Heartbeat CPU  2 instructions:   25000002 cycles:    9880664 heartbeat IPC: 2.44335 cumulative IPC: 2.53019 (Simulation time: 0 hr 2 min 38 sec) 
Heartbeat CPU  3 instructions:   26000001 cycles:    9948973 heartbeat IPC: 1.61986 cumulative IPC: 2.61334 (Simulation time: 0 hr 2 min 39 sec) 
Heartbeat CPU  0 instructions:   26000000 cycles:   10075766 heartbeat IPC: 2.78912 cumulative IPC: 2.58045 (Simulation time: 0 hr 2 min 41 sec) 
Heartbeat CPU  1 instructions:   26000001 cycles:   10369406 heartbeat IPC: 1.93330 cumulative IPC: 2.50738 (Simulation time: 0 hr 2 min 44 sec) 
Heartbeat CPU  2 instructions:   26000000 cycles:   10380247 heartbeat IPC: 2.00167 cumulative IPC: 2.50476 (Simulation time: 0 hr 2 min 44 sec) 
Heartbeat CPU  3 instructions:   27000002 cycles:   10591810 heartbeat IPC: 1.55561 cumulative IPC: 2.54914 (Simulation time: 0 hr 2 min 47 sec) 
Heartbeat CPU  0 instructions:   27000001 cycles:   10717665 heartbeat IPC: 1.55788 cumulative IPC: 2.51921 (Simulation time: 0 hr 2 min 49 sec) 
Heartbeat CPU  2 instructions:   27000001 cycles:   10889282 heartbeat IPC: 1.96450 cumulative IPC: 2.47950 (Simulation time: 0 hr 2 min 52 sec) 
Heartbeat CPU  1 instructions:   27000001 cycles:   10976172 heartbeat IPC: 1.64808 cumulative IPC: 2.45987 (Simulation time: 0 hr 2 min 53 sec) 
Heartbeat CPU  3 instructions:   28000000 cycles:   11206565 heartbeat IPC: 1.62666 cumulative IPC: 2.49854 (Simulation time: 0 hr 2 min 55 sec) 
Heartbeat CPU  0 instructions:   28000000 cycles:   11343566 heartbeat IPC: 1.59770 cumulative IPC: 2.46836 (Simulation time: 0 hr 2 min 57 sec) 
Heartbeat CPU  2 instructions:   28000000 cycles:   11459913 heartbeat IPC: 1.75244 cumulative IPC: 2.44330 (Simulation time: 0 hr 2 min 58 sec) 
Heartbeat CPU  1 instructions:   28000000 cycles:   11554579 heartbeat IPC: 1.72888 cumulative IPC: 2.42328 (Simulation time: 0 hr 2 min 59 sec) 
Heartbeat CPU  3 instructions:   29000001 cycles:   11709388 heartbeat IPC: 1.98877 cumulative IPC: 2.47665 (Simulation time: 0 hr 3 min 1 sec) 
Heartbeat CPU  0 instructions:   29000003 cycles:   11840262 heartbeat IPC: 2.01331 cumulative IPC: 2.44927 (Simulation time: 0 hr 3 min 3 sec) 
Heartbeat CPU  2 instructions:   29000001 cycles:   11964684 heartbeat IPC: 1.98110 cumulative IPC: 2.42380 (Simulation time: 0 hr 3 min 4 sec) 
Heartbeat CPU  1 instructions:   29000003 cycles:   12058097 heartbeat IPC: 1.98603 cumulative IPC: 2.40502 (Simulation time: 0 hr 3 min 6 sec) 
Heartbeat CPU  3 instructions:   30000000 cycles:   12241148 heartbeat IPC: 1.88055 cumulative IPC: 2.45075 (Simulation time: 0 hr 3 min 8 sec) 
Heartbeat CPU  0 instructions:   30000001 cycles:   12345984 heartbeat IPC: 1.97737 cumulative IPC: 2.42994 (Simulation time: 0 hr 3 min 9 sec) 
Heartbeat CPU  2 instructions:   30000003 cycles:   12523735 heartbeat IPC: 1.78875 cumulative IPC: 2.39545 (Simulation time: 0 hr 3 min 12 sec) 
Heartbeat CPU  1 instructions:   30000002 cycles:   12605066 heartbeat IPC: 1.82826 cumulative IPC: 2.38000 (Simulation time: 0 hr 3 min 13 sec) 
Heartbeat CPU  3 instructions:   31000000 cycles:   12923046 heartbeat IPC: 1.46650 cumulative IPC: 2.39882 (Simulation time: 0 hr 3 min 16 sec) 
Heartbeat CPU  0 instructions:   31000002 cycles:   12943417 heartbeat IPC: 1.67383 cumulative IPC: 2.39504 (Simulation time: 0 hr 3 min 16 sec) 
Heartbeat CPU  2 instructions:   31000000 cycles:   13210948 heartbeat IPC: 1.45515 cumulative IPC: 2.34654 (Simulation time: 0 hr 3 min 18 sec) 
Heartbeat CPU  1 instructions:   31000001 cycles:   13305165 heartbeat IPC: 1.42837 cumulative IPC: 2.32992 (Simulation time: 0 hr 3 min 19 sec) 
Heartbeat CPU  3 instructions:   32000000 cycles:   13570913 heartbeat IPC: 1.54353 cumulative IPC: 2.35798 (Simulation time: 0 hr 3 min 21 sec) 
Heartbeat CPU  0 instructions:   32000000 cycles:   13572639 heartbeat IPC: 1.58926 cumulative IPC: 2.35768 (Simulation time: 0 hr 3 min 21 sec) 
Heartbeat CPU  2 instructions:   32000000 cycles:   13803300 heartbeat IPC: 1.68819 cumulative IPC: 2.31829 (Simulation time: 0 hr 3 min 25 sec) 
Heartbeat CPU  1 instructions:   32000000 cycles:   13931890 heartbeat IPC: 1.59559 cumulative IPC: 2.29689 (Simulation time: 0 hr 3 min 27 sec) 
Heartbeat CPU  3 instructions:   33000000 cycles:   14030438 heartbeat IPC: 2.17616 cumulative IPC: 2.35203 (Simulation time: 0 hr 3 min 28 sec) 
Heartbeat CPU  0 instructions:   33000000 cycles:   14041553 heartbeat IPC: 2.13259 cumulative IPC: 2.35017 (Simulation time: 0 hr 3 min 28 sec) 
Heartbeat CPU  2 instructions:   33000002 cycles:   14267218 heartbeat IPC: 2.15556 cumulative IPC: 2.31299 (Simulation time: 0 hr 3 min 31 sec) 
Heartbeat CPU  1 instructions:   33000000 cycles:   14531687 heartbeat IPC: 1.66723 cumulative IPC: 2.27090 (Simulation time: 0 hr 3 min 34 sec) 
Heartbeat CPU  3 instructions:   34000002 cycles:   14562839 heartbeat IPC: 1.87829 cumulative IPC: 2.33471 (Simulation time: 0 hr 3 min 35 sec) 
Heartbeat CPU  0 instructions:   34000002 cycles:   14602999 heartbeat IPC: 1.78112 cumulative IPC: 2.32829 (Simulation time: 0 hr 3 min 35 sec) 
Heartbeat CPU  2 instructions:   34000000 cycles:   14822238 heartbeat IPC: 1.80173 cumulative IPC: 2.29385 (Simulation time: 0 hr 3 min 38 sec) 
Heartbeat CPU  0 instructions:   35000000 cycles:   15058663 heartbeat IPC: 2.19460 cumulative IPC: 2.32424 (Simulation time: 0 hr 3 min 41 sec) 
Heartbeat CPU  3 instructions:   35000002 cycles:   15093497 heartbeat IPC: 1.88445 cumulative IPC: 2.31888 (Simulation time: 0 hr 3 min 41 sec) 
Heartbeat CPU  1 instructions:   34000002 cycles:   15140398 heartbeat IPC: 1.64282 cumulative IPC: 2.24565 (Simulation time: 0 hr 3 min 42 sec) 
Heartbeat CPU  2 instructions:   35000001 cycles:   15288525 heartbeat IPC: 2.14460 cumulative IPC: 2.28930 (Simulation time: 0 hr 3 min 44 sec) 
Heartbeat CPU  0 instructions:   36000000 cycles:   15536228 heartbeat IPC: 2.09396 cumulative IPC: 2.31716 (Simulation time: 0 hr 3 min 47 sec) 
Heartbeat CPU  3 instructions:   36000000 cycles:   15583847 heartbeat IPC: 2.03936 cumulative IPC: 2.31008 (Simulation time: 0 hr 3 min 48 sec) 
Heartbeat CPU  1 instructions:   35000000 cycles:   15615727 heartbeat IPC: 2.10380 cumulative IPC: 2.24133 (Simulation time: 0 hr 3 min 48 sec) 
Heartbeat CPU  2 instructions:   36000000 cycles:   15754955 heartbeat IPC: 2.14394 cumulative IPC: 2.28500 (Simulation time: 0 hr 3 min 50 sec) 
Heartbeat CPU  0 instructions:   37000000 cycles:   15989871 heartbeat IPC: 2.20438 cumulative IPC: 2.31396 (Simulation time: 0 hr 3 min 53 sec) 
Heartbeat CPU  3 instructions:   37000003 cycles:   16046881 heartbeat IPC: 2.15968 cumulative IPC: 2.30574 (Simulation time: 0 hr 3 min 54 sec) 
Heartbeat CPU  1 instructions:   36000000 cycles:   16107147 heartbeat IPC: 2.03492 cumulative IPC: 2.23503 (Simulation time: 0 hr 3 min 54 sec) 
Heartbeat CPU  2 instructions:   37000003 cycles:   16222328 heartbeat IPC: 2.13963 cumulative IPC: 2.28081 (Simulation time: 0 hr 3 min 56 sec) 
Heartbeat CPU  0 instructions:   38000000 cycles:   16474766 heartbeat IPC: 2.06230 cumulative IPC: 2.30656 (Simulation time: 0 hr 3 min 59 sec) 
Heartbeat CPU  3 instructions:   38000003 cycles:   16495242 heartbeat IPC: 2.23035 cumulative IPC: 2.30369 (Simulation time: 0 hr 3 min 59 sec) 
Heartbeat CPU  1 instructions:   37000003 cycles:   16585258 heartbeat IPC: 2.09157 cumulative IPC: 2.23090 (Simulation time: 0 hr 4 min 0 sec) 
Heartbeat CPU  2 instructions:   38000002 cycles:   16745732 heartbeat IPC: 1.91057 cumulative IPC: 2.26924 (Simulation time: 0 hr 4 min 3 sec) 
Heartbeat CPU  3 instructions:   39000001 cycles:   16907497 heartbeat IPC: 2.42568 cumulative IPC: 2.30667 (Simulation time: 0 hr 4 min 5 sec) 
Heartbeat CPU  0 instructions:   39000002 cycles:   16957436 heartbeat IPC: 2.07181 cumulative IPC: 2.29988 (Simulation time: 0 hr 4 min 6 sec) 
Heartbeat CPU  1 instructions:   38000002 cycles:   17052099 heartbeat IPC: 2.14205 cumulative IPC: 2.22846 (Simulation time: 0 hr 4 min 7 sec) 
Heartbeat CPU  2 instructions:   39000003 cycles:   17179321 heartbeat IPC: 2.30633 cumulative IPC: 2.27017 (Simulation time: 0 hr 4 min 9 sec) 
Heartbeat CPU  3 instructions:   40000000 cycles:   17360769 heartbeat IPC: 2.20618 cumulative IPC: 2.30405 (Simulation time: 0 hr 4 min 11 sec) 
Heartbeat CPU  0 instructions:   40000000 cycles:   17433778 heartbeat IPC: 2.09933 cumulative IPC: 2.29440 (Simulation time: 0 hr 4 min 12 sec) 
Heartbeat CPU  1 instructions:   39000001 cycles:   17468944 heartbeat IPC: 2.39897 cumulative IPC: 2.23253 (Simulation time: 0 hr 4 min 13 sec) 
Heartbeat CPU  2 instructions:   40000000 cycles:   17623203 heartbeat IPC: 2.25284 cumulative IPC: 2.26973 (Simulation time: 0 hr 4 min 15 sec) 
Heartbeat CPU  3 instructions:   41000002 cycles:   17819303 heartbeat IPC: 2.18087 cumulative IPC: 2.30088 (Simulation time: 0 hr 4 min 17 sec) 
Heartbeat CPU  1 instructions:   40000000 cycles:   17913825 heartbeat IPC: 2.24779 cumulative IPC: 2.23291 (Simulation time: 0 hr 4 min 18 sec) 
Heartbeat CPU  0 instructions:   41000003 cycles:   18013070 heartbeat IPC: 1.72625 cumulative IPC: 2.27613 (Simulation time: 0 hr 4 min 20 sec) 
Heartbeat CPU  2 instructions:   41000003 cycles:   18072292 heartbeat IPC: 2.22674 cumulative IPC: 2.26867 (Simulation time: 0 hr 4 min 20 sec) 
Heartbeat CPU  3 instructions:   42000002 cycles:   18389879 heartbeat IPC: 1.75261 cumulative IPC: 2.28386 (Simulation time: 0 hr 4 min 24 sec) 
Heartbeat CPU  1 instructions:   41000003 cycles:   18402121 heartbeat IPC: 2.04794 cumulative IPC: 2.22800 (Simulation time: 0 hr 4 min 24 sec) 
Heartbeat CPU  0 instructions:   42000000 cycles:   18540851 heartbeat IPC: 1.89472 cumulative IPC: 2.26527 (Simulation time: 0 hr 4 min 26 sec) 
Heartbeat CPU  2 instructions:   42000001 cycles:   18576672 heartbeat IPC: 1.98263 cumulative IPC: 2.26090 (Simulation time: 0 hr 4 min 26 sec) 
Heartbeat CPU  3 instructions:   43000000 cycles:   18899788 heartbeat IPC: 1.96113 cumulative IPC: 2.27516 (Simulation time: 0 hr 4 min 30 sec) 
Heartbeat CPU  1 instructions:   42000003 cycles:   18917448 heartbeat IPC: 1.94052 cumulative IPC: 2.22017 (Simulation time: 0 hr 4 min 30 sec) 
Heartbeat CPU  0 instructions:   43000000 cycles:   19045919 heartbeat IPC: 1.97993 cumulative IPC: 2.25770 (Simulation time: 0 hr 4 min 32 sec) 
Heartbeat CPU  2 instructions:   43000002 cycles:   19132664 heartbeat IPC: 1.79859 cumulative IPC: 2.24747 (Simulation time: 0 hr 4 min 33 sec) 
Heartbeat CPU  3 instructions:   44000000 cycles:   19379077 heartbeat IPC: 2.08642 cumulative IPC: 2.27049 (Simulation time: 0 hr 4 min 36 sec) 
Heartbeat CPU  1 instructions:   43000003 cycles:   19482115 heartbeat IPC: 1.77096 cumulative IPC: 2.20715 (Simulation time: 0 hr 4 min 37 sec) 
Heartbeat CPU  2 instructions:   44000000 cycles:   19608188 heartbeat IPC: 2.10294 cumulative IPC: 2.24396 (Simulation time: 0 hr 4 min 38 sec) 
Heartbeat CPU  0 instructions:   44000000 cycles:   19655761 heartbeat IPC: 1.63977 cumulative IPC: 2.23853 (Simulation time: 0 hr 4 min 39 sec) 
Heartbeat CPU  1 instructions:   44000000 cycles:   20000672 heartbeat IPC: 1.92842 cumulative IPC: 2.19993 (Simulation time: 0 hr 4 min 42 sec) 
Heartbeat CPU  3 instructions:   45000000 cycles:   20096764 heartbeat IPC: 1.39337 cumulative IPC: 2.23917 (Simulation time: 0 hr 4 min 43 sec) 
Heartbeat CPU  0 instructions:   45000003 cycles:   20251573 heartbeat IPC: 1.67839 cumulative IPC: 2.22205 (Simulation time: 0 hr 4 min 44 sec) 
Heartbeat CPU  2 instructions:   45000000 cycles:   20291957 heartbeat IPC: 1.46248 cumulative IPC: 2.21763 (Simulation time: 0 hr 4 min 45 sec) 
Heartbeat CPU  3 instructions:   46000002 cycles:   20646478 heartbeat IPC: 1.81913 cumulative IPC: 2.22798 (Simulation time: 0 hr 4 min 49 sec) 
Heartbeat CPU  1 instructions:   45000002 cycles:   20664055 heartbeat IPC: 1.50743 cumulative IPC: 2.17769 (Simulation time: 0 hr 4 min 49 sec) 
Heartbeat CPU  0 instructions:   46000001 cycles:   20822019 heartbeat IPC: 1.75301 cumulative IPC: 2.20920 (Simulation time: 0 hr 4 min 50 sec) 
Heartbeat CPU  2 instructions:   46000003 cycles:   20857834 heartbeat IPC: 1.76717 cumulative IPC: 2.20541 (Simulation time: 0 hr 4 min 51 sec) 
Heartbeat CPU  1 instructions:   46000001 cycles:   21211280 heartbeat IPC: 1.82740 cumulative IPC: 2.16866 (Simulation time: 0 hr 4 min 54 sec) 
Heartbeat CPU  3 instructions:   47000002 cycles:   21292625 heartbeat IPC: 1.54764 cumulative IPC: 2.20734 (Simulation time: 0 hr 4 min 55 sec) 
Heartbeat CPU  0 instructions:   47000001 cycles:   21449700 heartbeat IPC: 1.59317 cumulative IPC: 2.19117 (Simulation time: 0 hr 4 min 57 sec) 
Heartbeat CPU  2 instructions:   47000000 cycles:   21502181 heartbeat IPC: 1.55195 cumulative IPC: 2.18582 (Simulation time: 0 hr 4 min 57 sec) 
Heartbeat CPU  1 instructions:   47000000 cycles:   21828979 heartbeat IPC: 1.61891 cumulative IPC: 2.15310 (Simulation time: 0 hr 5 min 0 sec) 
Heartbeat CPU  3 instructions:   48000000 cycles:   21830245 heartbeat IPC: 1.86005 cumulative IPC: 2.19878 (Simulation time: 0 hr 5 min 1 sec) 
Heartbeat CPU  0 instructions:   48000000 cycles:   22001975 heartbeat IPC: 1.81069 cumulative IPC: 2.18162 (Simulation time: 0 hr 5 min 2 sec) 
Heartbeat CPU  2 instructions:   48000000 cycles:   22144245 heartbeat IPC: 1.55748 cumulative IPC: 2.16761 (Simulation time: 0 hr 5 min 4 sec) 
Heartbeat CPU  3 instructions:   49000003 cycles:   22382533 heartbeat IPC: 1.81065 cumulative IPC: 2.18921 (Simulation time: 0 hr 5 min 7 sec) 
Heartbeat CPU  1 instructions:   48000000 cycles:   22388795 heartbeat IPC: 1.78630 cumulative IPC: 2.14393 (Simulation time: 0 hr 5 min 7 sec) 
Heartbeat CPU  0 instructions:   49000003 cycles:   22526641 heartbeat IPC: 1.90598 cumulative IPC: 2.17520 (Simulation time: 0 hr 5 min 9 sec) 
Heartbeat CPU  2 instructions:   49000001 cycles:   22760795 heartbeat IPC: 1.62193 cumulative IPC: 2.15282 (Simulation time: 0 hr 5 min 12 sec) 
Heartbeat CPU  3 instructions:   50000001 cycles:   22847418 heartbeat IPC: 2.15107 cumulative IPC: 2.18843 (Simulation time: 0 hr 5 min 13 sec) 
Heartbeat CPU  1 instructions:   49000001 cycles:   23001944 heartbeat IPC: 1.63093 cumulative IPC: 2.13025 (Simulation time: 0 hr 5 min 15 sec) 
Heartbeat CPU  3 instructions:   51000003 cycles:   23178630 heartbeat IPC: 3.01922 cumulative IPC: 0.04314 (Simulation time: 0 hr 5 min 17 sec) 
Heartbeat CPU  0 instructions:   50000003 cycles:   23302907 heartbeat IPC: 1.28822 cumulative IPC: 2.14566 (Simulation time: 0 hr 5 min 18 sec) 
Heartbeat CPU  2 instructions:   50000003 cycles:   23476762 heartbeat IPC: 1.39672 cumulative IPC: 2.12977 (Simulation time: 0 hr 5 min 20 sec) 
Heartbeat CPU  3 instructions:   52000000 cycles:   23514845 heartbeat IPC: 2.97428 cumulative IPC: 0.08505 (Simulation time: 0 hr 5 min 21 sec) 
Heartbeat CPU  1 instructions:   50000002 cycles:   23587184 heartbeat IPC: 1.70870 cumulative IPC: 2.11980 (Simulation time: 0 hr 5 min 22 sec) 

Warmup complete CPU  0 instructions:   50333758 cycles:   23587183 (Simulation time: 0 hr 5 min 22 sec) 
Warmup complete CPU  1 instructions:   50000002 cycles:   23587184 (Simulation time: 0 hr 5 min 22 sec) 
Warmup complete CPU  2 instructions:   50121401 cycles:   23587183 (Simulation time: 0 hr 5 min 22 sec) 
Warmup complete CPU  3 instructions:   52212518 cycles:   23587183 (Simulation time: 0 hr 5 min 22 sec) 

Heartbeat CPU  2 instructions:   51000000 cycles:   26480515 heartbeat IPC: 0.33292 cumulative IPC: 0.30366 (Simulation time: 0 hr 5 min 29 sec) 
Heartbeat CPU  3 instructions:   53000000 cycles:   26852927 heartbeat IPC: 0.29957 cumulative IPC: 0.24113 (Simulation time: 0 hr 5 min 30 sec) 
Heartbeat CPU  1 instructions:   51000001 cycles:   26968599 heartbeat IPC: 0.29573 cumulative IPC: 0.29573 (Simulation time: 0 hr 5 min 31 sec) 
Heartbeat CPU  0 instructions:   51000000 cycles:   27701288 heartbeat IPC: 0.22736 cumulative IPC: 0.16194 (Simulation time: 0 hr 5 min 33 sec) 
Heartbeat CPU  2 instructions:   52000000 cycles:   28970506 heartbeat IPC: 0.40161 cumulative IPC: 0.34897 (Simulation time: 0 hr 5 min 36 sec) 
Heartbeat CPU  3 instructions:   54000001 cycles:   29862653 heartbeat IPC: 0.33226 cumulative IPC: 0.28484 (Simulation time: 0 hr 5 min 39 sec) 
Heartbeat CPU  1 instructions:   52000000 cycles:   31393010 heartbeat IPC: 0.22602 cumulative IPC: 0.25622 (Simulation time: 0 hr 5 min 43 sec) 
Heartbeat CPU  2 instructions:   53000000 cycles:   31625354 heartbeat IPC: 0.37667 cumulative IPC: 0.35812 (Simulation time: 0 hr 5 min 44 sec) 
Heartbeat CPU  3 instructions:   55000003 cycles:   32580941 heartbeat IPC: 0.36788 cumulative IPC: 0.30994 (Simulation time: 0 hr 5 min 46 sec) 
Heartbeat CPU  0 instructions:   52000000 cycles:   33612674 heartbeat IPC: 0.16917 cumulative IPC: 0.16620 (Simulation time: 0 hr 5 min 49 sec) 
Heartbeat CPU  2 instructions:   54000000 cycles:   34541207 heartbeat IPC: 0.34295 cumulative IPC: 0.35408 (Simulation time: 0 hr 5 min 52 sec) 
Heartbeat CPU  1 instructions:   53000001 cycles:   35536601 heartbeat IPC: 0.24134 cumulative IPC: 0.25106 (Simulation time: 0 hr 5 min 55 sec) 
Heartbeat CPU  3 instructions:   56000000 cycles:   35760304 heartbeat IPC: 0.31453 cumulative IPC: 0.31113 (Simulation time: 0 hr 5 min 55 sec) 
Heartbeat CPU  0 instructions:   53000002 cycles:   36860334 heartbeat IPC: 0.30791 cumulative IPC: 0.20087 (Simulation time: 0 hr 5 min 59 sec) 
Heartbeat CPU  2 instructions:   55000000 cycles:   37514804 heartbeat IPC: 0.33629 cumulative IPC: 0.35028 (Simulation time: 0 hr 6 min 1 sec) 
Heartbeat CPU  1 instructions:   54000003 cycles:   38302186 heartbeat IPC: 0.36159 cumulative IPC: 0.27183 (Simulation time: 0 hr 6 min 3 sec) 
Heartbeat CPU  3 instructions:   57000003 cycles:   38743741 heartbeat IPC: 0.33518 cumulative IPC: 0.31587 (Simulation time: 0 hr 6 min 5 sec) 
Heartbeat CPU  0 instructions:   54000003 cycles:   39698630 heartbeat IPC: 0.35232 cumulative IPC: 0.22756 (Simulation time: 0 hr 6 min 8 sec) 
Heartbeat CPU  2 instructions:   56000000 cycles:   39976816 heartbeat IPC: 0.40617 cumulative IPC: 0.35868 (Simulation time: 0 hr 6 min 8 sec) 
Heartbeat CPU  1 instructions:   55000003 cycles:   41230364 heartbeat IPC: 0.34151 cumulative IPC: 0.28340 (Simulation time: 0 hr 6 min 12 sec) 
Heartbeat CPU  3 instructions:   58000001 cycles:   41802312 heartbeat IPC: 0.32695 cumulative IPC: 0.31773 (Simulation time: 0 hr 6 min 14 sec) 
Heartbeat CPU  2 instructions:   57000002 cycles:   42492757 heartbeat IPC: 0.39747 cumulative IPC: 0.36384 (Simulation time: 0 hr 6 min 16 sec) 
Heartbeat CPU  0 instructions:   55000003 cycles:   42733659 heartbeat IPC: 0.32949 cumulative IPC: 0.24371 (Simulation time: 0 hr 6 min 17 sec) 
Heartbeat CPU  1 instructions:   56000000 cycles:   44040338 heartbeat IPC: 0.35587 cumulative IPC: 0.29335 (Simulation time: 0 hr 6 min 21 sec) 
Heartbeat CPU  3 instructions:   59000000 cycles:   44225388 heartbeat IPC: 0.41270 cumulative IPC: 0.32888 (Simulation time: 0 hr 6 min 22 sec) 
Heartbeat CPU  2 instructions:   58000002 cycles:   45048492 heartbeat IPC: 0.39128 cumulative IPC: 0.36711 (Simulation time: 0 hr 6 min 25 sec) 
Heartbeat CPU  0 instructions:   56000000 cycles:   45108123 heartbeat IPC: 0.42115 cumulative IPC: 0.26329 (Simulation time: 0 hr 6 min 25 sec) 
Heartbeat CPU  3 instructions:   60000000 cycles:   46657770 heartbeat IPC: 0.41112 cumulative IPC: 0.33755 (Simulation time: 0 hr 6 min 30 sec) 
Heartbeat CPU  1 instructions:   57000000 cycles:   46710813 heartbeat IPC: 0.37447 cumulative IPC: 0.30272 (Simulation time: 0 hr 6 min 30 sec) 
Heartbeat CPU  2 instructions:   59000003 cycles:   47551052 heartbeat IPC: 0.39959 cumulative IPC: 0.37050 (Simulation time: 0 hr 6 min 33 sec) 
Heartbeat CPU  0 instructions:   57000003 cycles:   47723296 heartbeat IPC: 0.38239 cumulative IPC: 0.27619 (Simulation time: 0 hr 6 min 34 sec) 
Heartbeat CPU  1 instructions:   58000003 cycles:   48943828 heartbeat IPC: 0.44783 cumulative IPC: 0.31550 (Simulation time: 0 hr 6 min 38 sec) 
Heartbeat CPU  3 instructions:   61000001 cycles:   49095123 heartbeat IPC: 0.41028 cumulative IPC: 0.34450 (Simulation time: 0 hr 6 min 39 sec) 
Heartbeat CPU  0 instructions:   58000003 cycles:   50241306 heartbeat IPC: 0.39714 cumulative IPC: 0.28762 (Simulation time: 0 hr 6 min 42 sec) 
Heartbeat CPU  2 instructions:   60000000 cycles:   50432601 heartbeat IPC: 0.34703 cumulative IPC: 0.36798 (Simulation time: 0 hr 6 min 43 sec) 
Heartbeat CPU  3 instructions:   62000002 cycles:   51558798 heartbeat IPC: 0.40590 cumulative IPC: 0.34991 (Simulation time: 0 hr 6 min 46 sec) 
Heartbeat CPU  1 instructions:   59000000 cycles:   51821980 heartbeat IPC: 0.34744 cumulative IPC: 0.31876 (Simulation time: 0 hr 6 min 47 sec) 
Heartbeat CPU  0 instructions:   59000002 cycles:   52836554 heartbeat IPC: 0.38532 cumulative IPC: 0.29629 (Simulation time: 0 hr 6 min 50 sec) 
Heartbeat CPU  2 instructions:   61000000 cycles:   53149652 heartbeat IPC: 0.36805 cumulative IPC: 0.36799 (Simulation time: 0 hr 6 min 51 sec) 
Heartbeat CPU  3 instructions:   63000001 cycles:   54315613 heartbeat IPC: 0.36274 cumulative IPC: 0.35106 (Simulation time: 0 hr 6 min 55 sec) 
Heartbeat CPU  1 instructions:   60000000 cycles:   54569760 heartbeat IPC: 0.36393 cumulative IPC: 0.32276 (Simulation time: 0 hr 6 min 56 sec) 
Heartbeat CPU  0 instructions:   60000000 cycles:   55484045 heartbeat IPC: 0.37772 cumulative IPC: 0.30305 (Simulation time: 0 hr 6 min 58 sec) 
Heartbeat CPU  2 instructions:   62000003 cycles:   56378527 heartbeat IPC: 0.30971 cumulative IPC: 0.36225 (Simulation time: 0 hr 7 min 1 sec) 
Heartbeat CPU  3 instructions:   64000000 cycles:   57237637 heartbeat IPC: 0.34223 cumulative IPC: 0.35029 (Simulation time: 0 hr 7 min 4 sec) 
Heartbeat CPU  1 instructions:   61000000 cycles:   57363393 heartbeat IPC: 0.35796 cumulative IPC: 0.32567 (Simulation time: 0 hr 7 min 4 sec) 
Heartbeat CPU  0 instructions:   61000001 cycles:   58081469 heartbeat IPC: 0.38500 cumulative IPC: 0.30922 (Simulation time: 0 hr 7 min 7 sec) 
Heartbeat CPU  2 instructions:   63000002 cycles:   58616711 heartbeat IPC: 0.44679 cumulative IPC: 0.36765 (Simulation time: 0 hr 7 min 9 sec) 
Heartbeat CPU  3 instructions:   65000002 cycles:   59794866 heartbeat IPC: 0.39105 cumulative IPC: 0.35317 (Simulation time: 0 hr 7 min 12 sec) 
Heartbeat CPU  1 instructions:   62000000 cycles:   59912818 heartbeat IPC: 0.39225 cumulative IPC: 0.33035 (Simulation time: 0 hr 7 min 13 sec) 
Heartbeat CPU  0 instructions:   62000000 cycles:   60670449 heartbeat IPC: 0.38625 cumulative IPC: 0.31460 (Simulation time: 0 hr 7 min 15 sec) 
Heartbeat CPU  2 instructions:   64000000 cycles:   61177290 heartbeat IPC: 0.39054 cumulative IPC: 0.36921 (Simulation time: 0 hr 7 min 17 sec) 
Heartbeat CPU  3 instructions:   66000001 cycles:   62427862 heartbeat IPC: 0.37980 cumulative IPC: 0.35498 (Simulation time: 0 hr 7 min 21 sec) 
Heartbeat CPU  1 instructions:   63000003 cycles:   62826378 heartbeat IPC: 0.34322 cumulative IPC: 0.33130 (Simulation time: 0 hr 7 min 22 sec) 
Heartbeat CPU  0 instructions:   63000001 cycles:   63640675 heartbeat IPC: 0.33668 cumulative IPC: 0.31623 (Simulation time: 0 hr 7 min 24 sec) 
Heartbeat CPU  2 instructions:   65000002 cycles:   64453704 heartbeat IPC: 0.30521 cumulative IPC: 0.36408 (Simulation time: 0 hr 7 min 28 sec) 
Heartbeat CPU  1 instructions:   64000000 cycles:   64731206 heartbeat IPC: 0.52498 cumulative IPC: 0.34027 (Simulation time: 0 hr 7 min 29 sec) 
Heartbeat CPU  3 instructions:   67000003 cycles:   65099383 heartbeat IPC: 0.37432 cumulative IPC: 0.35622 (Simulation time: 0 hr 7 min 31 sec) 
Heartbeat CPU  0 instructions:   64000000 cycles:   65275085 heartbeat IPC: 0.61184 cumulative IPC: 0.32782 (Simulation time: 0 hr 7 min 31 sec) 
Heartbeat CPU  2 instructions:   66000003 cycles:   66620665 heartbeat IPC: 0.46148 cumulative IPC: 0.36898 (Simulation time: 0 hr 7 min 36 sec) 
Heartbeat CPU  1 instructions:   65000001 cycles:   67245704 heartbeat IPC: 0.39769 cumulative IPC: 0.34358 (Simulation time: 0 hr 7 min 38 sec) 
Heartbeat CPU  3 instructions:   68000000 cycles:   67655608 heartbeat IPC: 0.39120 cumulative IPC: 0.35825 (Simulation time: 0 hr 7 min 39 sec) 
Heartbeat CPU  0 instructions:   65000000 cycles:   68188378 heartbeat IPC: 0.34325 cumulative IPC: 0.32883 (Simulation time: 0 hr 7 min 40 sec) 
Heartbeat CPU  2 instructions:   67000002 cycles:   69299858 heartbeat IPC: 0.37325 cumulative IPC: 0.36923 (Simulation time: 0 hr 7 min 44 sec) 
Heartbeat CPU  1 instructions:   66000002 cycles:   69756202 heartbeat IPC: 0.39833 cumulative IPC: 0.34655 (Simulation time: 0 hr 7 min 46 sec) 
Heartbeat CPU  0 instructions:   66000002 cycles:   70316485 heartbeat IPC: 0.46990 cumulative IPC: 0.33526 (Simulation time: 0 hr 7 min 47 sec) 
Heartbeat CPU  3 instructions:   69000001 cycles:   70593408 heartbeat IPC: 0.34039 cumulative IPC: 0.35713 (Simulation time: 0 hr 7 min 48 sec) 
Heartbeat CPU  2 instructions:   68000000 cycles:   71727844 heartbeat IPC: 0.41186 cumulative IPC: 0.37138 (Simulation time: 0 hr 7 min 52 sec) 
Heartbeat CPU  1 instructions:   67000002 cycles:   72283253 heartbeat IPC: 0.39572 cumulative IPC: 0.34910 (Simulation time: 0 hr 7 min 54 sec) 
Heartbeat CPU  0 instructions:   67000000 cycles:   72895578 heartbeat IPC: 0.38773 cumulative IPC: 0.33800 (Simulation time: 0 hr 7 min 56 sec) 
Heartbeat CPU  3 instructions:   70000002 cycles:   73065962 heartbeat IPC: 0.40444 cumulative IPC: 0.35950 (Simulation time: 0 hr 7 min 56 sec) 
Heartbeat CPU  1 instructions:   68000000 cycles:   74298681 heartbeat IPC: 0.49617 cumulative IPC: 0.35495 (Simulation time: 0 hr 8 min 0 sec) 
Heartbeat CPU  2 instructions:   69000000 cycles:   74460572 heartbeat IPC: 0.36593 cumulative IPC: 0.37109 (Simulation time: 0 hr 8 min 1 sec) 
Heartbeat CPU  0 instructions:   68000000 cycles:   75300076 heartbeat IPC: 0.41589 cumulative IPC: 0.34162 (Simulation time: 0 hr 8 min 3 sec) 
Heartbeat CPU  3 instructions:   71000000 cycles:   75510102 heartbeat IPC: 0.40914 cumulative IPC: 0.36183 (Simulation time: 0 hr 8 min 4 sec) 
Heartbeat CPU  1 instructions:   69000000 cycles:   77183975 heartbeat IPC: 0.34659 cumulative IPC: 0.35450 (Simulation time: 0 hr 8 min 9 sec) 
Heartbeat CPU  3 instructions:   72000000 cycles:   77892488 heartbeat IPC: 0.41975 cumulative IPC: 0.36437 (Simulation time: 0 hr 8 min 11 sec) 
Heartbeat CPU  2 instructions:   70000001 cycles:   78084989 heartbeat IPC: 0.27591 cumulative IPC: 0.36476 (Simulation time: 0 hr 8 min 12 sec) 
Heartbeat CPU  0 instructions:   69000002 cycles:   78277918 heartbeat IPC: 0.33581 cumulative IPC: 0.34131 (Simulation time: 0 hr 8 min 13 sec) 
Heartbeat CPU  1 instructions:   70000003 cycles:   79728673 heartbeat IPC: 0.39298 cumulative IPC: 0.35624 (Simulation time: 0 hr 8 min 18 sec) 
Heartbeat CPU  3 instructions:   73000003 cycles:   80297681 heartbeat IPC: 0.41577 cumulative IPC: 0.36655 (Simulation time: 0 hr 8 min 20 sec) 
Heartbeat CPU  0 instructions:   70000000 cycles:   80466524 heartbeat IPC: 0.45691 cumulative IPC: 0.34575 (Simulation time: 0 hr 8 min 20 sec) 
Heartbeat CPU  2 instructions:   71000002 cycles:   80918051 heartbeat IPC: 0.35298 cumulative IPC: 0.36418 (Simulation time: 0 hr 8 min 22 sec) 
Heartbeat CPU  1 instructions:   71000000 cycles:   81853142 heartbeat IPC: 0.47070 cumulative IPC: 0.36042 (Simulation time: 0 hr 8 min 25 sec) 
Heartbeat CPU  0 instructions:   71000001 cycles:   82848262 heartbeat IPC: 0.41986 cumulative IPC: 0.34873 (Simulation time: 0 hr 8 min 28 sec) 
Heartbeat CPU  3 instructions:   74000000 cycles:   83366688 heartbeat IPC: 0.32584 cumulative IPC: 0.36446 (Simulation time: 0 hr 8 min 30 sec) 
Heartbeat CPU  2 instructions:   72000000 cycles:   83607615 heartbeat IPC: 0.37181 cumulative IPC: 0.36452 (Simulation time: 0 hr 8 min 30 sec) 
Heartbeat CPU  1 instructions:   72000000 cycles:   84342490 heartbeat IPC: 0.40171 cumulative IPC: 0.36211 (Simulation time: 0 hr 8 min 33 sec) 
Heartbeat CPU  0 instructions:   72000000 cycles:   84637376 heartbeat IPC: 0.55894 cumulative IPC: 0.35489 (Simulation time: 0 hr 8 min 34 sec) 
Heartbeat CPU  3 instructions:   75000002 cycles:   85709694 heartbeat IPC: 0.42680 cumulative IPC: 0.36682 (Simulation time: 0 hr 8 min 37 sec) 
Heartbeat CPU  2 instructions:   73000002 cycles:   86261688 heartbeat IPC: 0.37678 cumulative IPC: 0.36504 (Simulation time: 0 hr 8 min 39 sec) 
Heartbeat CPU  1 instructions:   73000001 cycles:   86808974 heartbeat IPC: 0.40544 cumulative IPC: 0.36380 (Simulation time: 0 hr 8 min 41 sec) 
Heartbeat CPU  0 instructions:   73000002 cycles:   87810682 heartbeat IPC: 0.31513 cumulative IPC: 0.35293 (Simulation time: 0 hr 8 min 44 sec) 
Heartbeat CPU  3 instructions:   76000000 cycles:   88317551 heartbeat IPC: 0.38346 cumulative IPC: 0.36749 (Simulation time: 0 hr 8 min 45 sec) 
Heartbeat CPU  2 instructions:   74000003 cycles:   89074969 heartbeat IPC: 0.35546 cumulative IPC: 0.36463 (Simulation time: 0 hr 8 min 47 sec) 
Heartbeat CPU  1 instructions:   74000003 cycles:   89622624 heartbeat IPC: 0.35541 cumulative IPC: 0.36344 (Simulation time: 0 hr 8 min 49 sec) 
Heartbeat CPU  0 instructions:   74000002 cycles:   90415049 heartbeat IPC: 0.38397 cumulative IPC: 0.35414 (Simulation time: 0 hr 8 min 51 sec) 
Heartbeat CPU  3 instructions:   77000000 cycles:   91451041 heartbeat IPC: 0.31913 cumulative IPC: 0.36525 (Simulation time: 0 hr 8 min 55 sec) 
Heartbeat CPU  2 instructions:   75000000 cycles:   91605798 heartbeat IPC: 0.39513 cumulative IPC: 0.36576 (Simulation time: 0 hr 8 min 55 sec) 
Heartbeat CPU  1 instructions:   75000002 cycles:   92018604 heartbeat IPC: 0.41737 cumulative IPC: 0.36533 (Simulation time: 0 hr 8 min 57 sec) 
Heartbeat CPU  0 instructions:   75000002 cycles:   92835618 heartbeat IPC: 0.41313 cumulative IPC: 0.35620 (Simulation time: 0 hr 8 min 59 sec) 
Heartbeat CPU  2 instructions:   76000000 cycles:   94136438 heartbeat IPC: 0.39516 cumulative IPC: 0.36682 (Simulation time: 0 hr 9 min 3 sec) 
Heartbeat CPU  3 instructions:   78000003 cycles:   94394802 heartbeat IPC: 0.33970 cumulative IPC: 0.36419 (Simulation time: 0 hr 9 min 4 sec) 
Heartbeat CPU  1 instructions:   76000000 cycles:   94745288 heartbeat IPC: 0.36675 cumulative IPC: 0.36538 (Simulation time: 0 hr 9 min 5 sec) 
Heartbeat CPU  0 instructions:   76000000 cycles:   95298325 heartbeat IPC: 0.40606 cumulative IPC: 0.35791 (Simulation time: 0 hr 9 min 7 sec) 
Heartbeat CPU  2 instructions:   77000001 cycles:   96249957 heartbeat IPC: 0.47315 cumulative IPC: 0.36991 (Simulation time: 0 hr 9 min 10 sec) 
Heartbeat CPU  3 instructions:   79000000 cycles:   96901022 heartbeat IPC: 0.39901 cumulative IPC: 0.36538 (Simulation time: 0 hr 9 min 13 sec) 
Heartbeat CPU  0 instructions:   77000001 cycles:   97624073 heartbeat IPC: 0.42997 cumulative IPC: 0.36018 (Simulation time: 0 hr 9 min 15 sec) 
Heartbeat CPU  1 instructions:   77000003 cycles:   97732256 heartbeat IPC: 0.33479 cumulative IPC: 0.36415 (Simulation time: 0 hr 9 min 16 sec) 
Heartbeat CPU  2 instructions:   78000003 cycles:   98101107 heartbeat IPC: 0.54021 cumulative IPC: 0.37414 (Simulation time: 0 hr 9 min 18 sec) 
Heartbeat CPU  1 instructions:   78000001 cycles:   99363840 heartbeat IPC: 0.61290 cumulative IPC: 0.36951 (Simulation time: 0 hr 9 min 22 sec) 
Heartbeat CPU  0 instructions:   78000002 cycles:   99418638 heartbeat IPC: 0.55724 cumulative IPC: 0.36484 (Simulation time: 0 hr 9 min 22 sec) 
Heartbeat CPU  3 instructions:   80000000 cycles:   99430179 heartbeat IPC: 0.39539 cumulative IPC: 0.36638 (Simulation time: 0 hr 9 min 22 sec) 
Heartbeat CPU  2 instructions:   79000001 cycles:  100836195 heartbeat IPC: 0.36562 cumulative IPC: 0.37384 (Simulation time: 0 hr 9 min 27 sec) 
Heartbeat CPU  0 instructions:   79000000 cycles:  101047450 heartbeat IPC: 0.61394 cumulative IPC: 0.37008 (Simulation time: 0 hr 9 min 28 sec) 
Heartbeat CPU  1 instructions:   79000000 cycles:  101818453 heartbeat IPC: 0.40740 cumulative IPC: 0.37070 (Simulation time: 0 hr 9 min 31 sec) 
Heartbeat CPU  3 instructions:   81000002 cycles:  101862320 heartbeat IPC: 0.41116 cumulative IPC: 0.36777 (Simulation time: 0 hr 9 min 31 sec) 
Heartbeat CPU  2 instructions:   80000000 cycles:  103198812 heartbeat IPC: 0.42326 cumulative IPC: 0.37530 (Simulation time: 0 hr 9 min 35 sec) 
Heartbeat CPU  0 instructions:   80000000 cycles:  103303166 heartbeat IPC: 0.44332 cumulative IPC: 0.37215 (Simulation time: 0 hr 9 min 36 sec) 
Heartbeat CPU  1 instructions:   80000000 cycles:  104538814 heartbeat IPC: 0.36760 cumulative IPC: 0.37059 (Simulation time: 0 hr 9 min 39 sec) 
Heartbeat CPU  3 instructions:   82000003 cycles:  104726755 heartbeat IPC: 0.34911 cumulative IPC: 0.36711 (Simulation time: 0 hr 9 min 40 sec) 
Heartbeat CPU  2 instructions:   81000003 cycles:  105773184 heartbeat IPC: 0.38845 cumulative IPC: 0.37572 (Simulation time: 0 hr 9 min 43 sec) 
Heartbeat CPU  0 instructions:   81000001 cycles:  106852203 heartbeat IPC: 0.28177 cumulative IPC: 0.36830 (Simulation time: 0 hr 9 min 47 sec) 
Heartbeat CPU  1 instructions:   81000000 cycles:  107079954 heartbeat IPC: 0.39352 cumulative IPC: 0.37129 (Simulation time: 0 hr 9 min 48 sec) 
Heartbeat CPU  3 instructions:   83000000 cycles:  107530000 heartbeat IPC: 0.35673 cumulative IPC: 0.36677 (Simulation time: 0 hr 9 min 49 sec) 
Heartbeat CPU  2 instructions:   82000000 cycles:  107848844 heartbeat IPC: 0.48177 cumulative IPC: 0.37833 (Simulation time: 0 hr 9 min 50 sec) 
Heartbeat CPU  1 instructions:   82000002 cycles:  109648240 heartbeat IPC: 0.38937 cumulative IPC: 0.37183 (Simulation time: 0 hr 9 min 56 sec) 
Heartbeat CPU  3 instructions:   84000000 cycles:  110062892 heartbeat IPC: 0.39481 cumulative IPC: 0.36759 (Simulation time: 0 hr 9 min 57 sec) 
Heartbeat CPU  0 instructions:   82000001 cycles:  110409897 heartbeat IPC: 0.28108 cumulative IPC: 0.36472 (Simulation time: 0 hr 9 min 58 sec) 
Heartbeat CPU  2 instructions:   83000000 cycles:  110704921 heartbeat IPC: 0.35013 cumulative IPC: 0.37740 (Simulation time: 0 hr 9 min 59 sec) 
Heartbeat CPU  0 instructions:   83000001 cycles:  112076678 heartbeat IPC: 0.59996 cumulative IPC: 0.36915 (Simulation time: 0 hr 10 min 4 sec) 
Heartbeat CPU  1 instructions:   83000003 cycles:  112165187 heartbeat IPC: 0.39731 cumulative IPC: 0.37255 (Simulation time: 0 hr 10 min 4 sec) 
Heartbeat CPU  2 instructions:   84000000 cycles:  112748627 heartbeat IPC: 0.48931 cumulative IPC: 0.37997 (Simulation time: 0 hr 10 min 6 sec) 
Heartbeat CPU  3 instructions:   85000001 cycles:  113200941 heartbeat IPC: 0.31867 cumulative IPC: 0.36588 (Simulation time: 0 hr 10 min 7 sec) 
Heartbeat CPU  0 instructions:   84000000 cycles:  114670738 heartbeat IPC: 0.38550 cumulative IPC: 0.36962 (Simulation time: 0 hr 10 min 11 sec) 
Heartbeat CPU  1 instructions:   84000000 cycles:  114800813 heartbeat IPC: 0.37942 cumulative IPC: 0.37275 (Simulation time: 0 hr 10 min 12 sec) 
Heartbeat CPU  2 instructions:   85000003 cycles:  115664743 heartbeat IPC: 0.34292 cumulative IPC: 0.37880 (Simulation time: 0 hr 10 min 15 sec) 
Heartbeat CPU  0 instructions:   85000001 cycles:  116203958 heartbeat IPC: 0.65222 cumulative IPC: 0.37430 (Simulation time: 0 hr 10 min 17 sec) 
Heartbeat CPU  3 instructions:   86000001 cycles:  116449241 heartbeat IPC: 0.30785 cumulative IPC: 0.36385 (Simulation time: 0 hr 10 min 17 sec) 
Heartbeat CPU  1 instructions:   85000002 cycles:  117698218 heartbeat IPC: 0.34514 cumulative IPC: 0.37190 (Simulation time: 0 hr 10 min 22 sec) 
Heartbeat CPU  0 instructions:   86000001 cycles:  118228547 heartbeat IPC: 0.49393 cumulative IPC: 0.37686 (Simulation time: 0 hr 10 min 23 sec) 
Heartbeat CPU  2 instructions:   86000003 cycles:  118845278 heartbeat IPC: 0.31441 cumulative IPC: 0.37665 (Simulation time: 0 hr 10 min 25 sec) 
Heartbeat CPU  3 instructions:   87000003 cycles:  119400024 heartbeat IPC: 0.33889 cumulative IPC: 0.36308 (Simulation time: 0 hr 10 min 27 sec) 
Heartbeat CPU  1 instructions:   86000000 cycles:  120453183 heartbeat IPC: 0.36298 cumulative IPC: 0.37165 (Simulation time: 0 hr 10 min 30 sec) 
Heartbeat CPU  2 instructions:   87000002 cycles:  121310637 heartbeat IPC: 0.40562 cumulative IPC: 0.37738 (Simulation time: 0 hr 10 min 33 sec) 
Heartbeat CPU  0 instructions:   87000000 cycles:  121441697 heartbeat IPC: 0.31122 cumulative IPC: 0.37470 (Simulation time: 0 hr 10 min 34 sec) 
Heartbeat CPU  3 instructions:   88000000 cycles:  121997258 heartbeat IPC: 0.38502 cumulative IPC: 0.36366 (Simulation time: 0 hr 10 min 36 sec) 
Heartbeat CPU  1 instructions:   87000002 cycles:  122846890 heartbeat IPC: 0.41776 cumulative IPC: 0.37276 (Simulation time: 0 hr 10 min 38 sec) 
Heartbeat CPU  2 instructions:   88000000 cycles:  123671713 heartbeat IPC: 0.42353 cumulative IPC: 0.37847 (Simulation time: 0 hr 10 min 41 sec) 
Heartbeat CPU  0 instructions:   88000000 cycles:  123833678 heartbeat IPC: 0.41806 cumulative IPC: 0.37574 (Simulation time: 0 hr 10 min 41 sec) 
Heartbeat CPU  3 instructions:   89000002 cycles:  124579387 heartbeat IPC: 0.38728 cumulative IPC: 0.36426 (Simulation time: 0 hr 10 min 44 sec) 
Heartbeat CPU  1 instructions:   88000000 cycles:  125291173 heartbeat IPC: 0.40912 cumulative IPC: 0.37363 (Simulation time: 0 hr 10 min 46 sec) 
Heartbeat CPU  0 instructions:   89000003 cycles:  125576228 heartbeat IPC: 0.57387 cumulative IPC: 0.37912 (Simulation time: 0 hr 10 min 47 sec) 
Heartbeat CPU  2 instructions:   89000003 cycles:  126274322 heartbeat IPC: 0.38423 cumulative IPC: 0.37861 (Simulation time: 0 hr 10 min 50 sec) 
Heartbeat CPU  3 instructions:   90000000 cycles:  127181890 heartbeat IPC: 0.38424 cumulative IPC: 0.36476 (Simulation time: 0 hr 10 min 53 sec) 
Heartbeat CPU  1 instructions:   89000001 cycles:  127745063 heartbeat IPC: 0.40752 cumulative IPC: 0.37443 (Simulation time: 0 hr 10 min 55 sec) 
Heartbeat CPU  0 instructions:   90000003 cycles:  128057206 heartbeat IPC: 0.40307 cumulative IPC: 0.37969 (Simulation time: 0 hr 10 min 56 sec) 
Heartbeat CPU  2 instructions:   90000000 cycles:  128802103 heartbeat IPC: 0.39560 cumulative IPC: 0.37902 (Simulation time: 0 hr 10 min 58 sec) 
Heartbeat CPU  1 instructions:   90000002 cycles:  130242399 heartbeat IPC: 0.40043 cumulative IPC: 0.37504 (Simulation time: 0 hr 11 min 3 sec) 
Heartbeat CPU  3 instructions:   91000000 cycles:  130378583 heartbeat IPC: 0.31282 cumulative IPC: 0.36321 (Simulation time: 0 hr 11 min 3 sec) 
Heartbeat CPU  0 instructions:   91000001 cycles:  130574734 heartbeat IPC: 0.39721 cumulative IPC: 0.38010 (Simulation time: 0 hr 11 min 4 sec) 
Heartbeat CPU  2 instructions:   91000002 cycles:  131390084 heartbeat IPC: 0.38640 cumulative IPC: 0.37920 (Simulation time: 0 hr 11 min 6 sec) 
Heartbeat CPU  0 instructions:   92000000 cycles:  132155227 heartbeat IPC: 0.63271 cumulative IPC: 0.38378 (Simulation time: 0 hr 11 min 9 sec) 
Heartbeat CPU  1 instructions:   91000001 cycles:  132759015 heartbeat IPC: 0.39736 cumulative IPC: 0.37555 (Simulation time: 0 hr 11 min 11 sec) 
Heartbeat CPU  2 instructions:   92000000 cycles:  132935429 heartbeat IPC: 0.64710 cumulative IPC: 0.38298 (Simulation time: 0 hr 11 min 11 sec) 
Heartbeat CPU  3 instructions:   92000000 cycles:  134618561 heartbeat IPC: 0.23585 cumulative IPC: 0.35834 (Simulation time: 0 hr 11 min 17 sec) 
Heartbeat CPU  0 instructions:   93000002 cycles:  134680092 heartbeat IPC: 0.39606 cumulative IPC: 0.38406 (Simulation time: 0 hr 11 min 17 sec) 
Heartbeat CPU  1 instructions:   92000000 cycles:  135389940 heartbeat IPC: 0.38009 cumulative IPC: 0.37566 (Simulation time: 0 hr 11 min 19 sec) 
Heartbeat CPU  2 instructions:   93000000 cycles:  135501255 heartbeat IPC: 0.38974 cumulative IPC: 0.38314 (Simulation time: 0 hr 11 min 19 sec) 
Heartbeat CPU  3 instructions:   93000003 cycles:  137199896 heartbeat IPC: 0.38740 cumulative IPC: 0.35900 (Simulation time: 0 hr 11 min 24 sec) 
Heartbeat CPU  0 instructions:   94000002 cycles:  137768367 heartbeat IPC: 0.32381 cumulative IPC: 0.38243 (Simulation time: 0 hr 11 min 26 sec) 
Heartbeat CPU  1 instructions:   93000002 cycles:  137890503 heartbeat IPC: 0.39991 cumulative IPC: 0.37619 (Simulation time: 0 hr 11 min 27 sec) 
Heartbeat CPU  2 instructions:   94000002 cycles:  138192270 heartbeat IPC: 0.37161 cumulative IPC: 0.38287 (Simulation time: 0 hr 11 min 27 sec) 
Heartbeat CPU  3 instructions:   94000001 cycles:  139954178 heartbeat IPC: 0.36307 cumulative IPC: 0.35910 (Simulation time: 0 hr 11 min 33 sec) 
Heartbeat CPU  0 instructions:   95000002 cycles:  140446366 heartbeat IPC: 0.37341 cumulative IPC: 0.38222 (Simulation time: 0 hr 11 min 34 sec) 
Heartbeat CPU  1 instructions:   94000000 cycles:  140474731 heartbeat IPC: 0.38696 cumulative IPC: 0.37643 (Simulation time: 0 hr 11 min 34 sec) 
Heartbeat CPU  2 instructions:   95000002 cycles:  141028660 heartbeat IPC: 0.35256 cumulative IPC: 0.38214 (Simulation time: 0 hr 11 min 36 sec) 
Heartbeat CPU  1 instructions:   95000002 cycles:  142673156 heartbeat IPC: 0.45487 cumulative IPC: 0.37788 (Simulation time: 0 hr 11 min 41 sec) 
Heartbeat CPU  3 instructions:   95000000 cycles:  142885944 heartbeat IPC: 0.34109 cumulative IPC: 0.35866 (Simulation time: 0 hr 11 min 42 sec) 
Heartbeat CPU  0 instructions:   96000000 cycles:  143372884 heartbeat IPC: 0.34170 cumulative IPC: 0.38123 (Simulation time: 0 hr 11 min 43 sec) 
Heartbeat CPU  2 instructions:   96000000 cycles:  143504599 heartbeat IPC: 0.40389 cumulative IPC: 0.38258 (Simulation time: 0 hr 11 min 44 sec) 
Heartbeat CPU  1 instructions:   96000000 cycles:  144994133 heartbeat IPC: 0.43085 cumulative IPC: 0.37889 (Simulation time: 0 hr 11 min 48 sec) 
Heartbeat CPU  3 instructions:   96000000 cycles:  145514005 heartbeat IPC: 0.38051 cumulative IPC: 0.35913 (Simulation time: 0 hr 11 min 50 sec) 
Heartbeat CPU  2 instructions:   97000000 cycles:  145986966 heartbeat IPC: 0.40284 cumulative IPC: 0.38300 (Simulation time: 0 hr 11 min 51 sec) 
Heartbeat CPU  0 instructions:   97000000 cycles:  146271453 heartbeat IPC: 0.34500 cumulative IPC: 0.38038 (Simulation time: 0 hr 11 min 52 sec) 
Heartbeat CPU  1 instructions:   97000001 cycles:  147922662 heartbeat IPC: 0.34147 cumulative IPC: 0.37801 (Simulation time: 0 hr 11 min 57 sec) 
Heartbeat CPU  3 instructions:   97000001 cycles:  148055124 heartbeat IPC: 0.39353 cumulative IPC: 0.35983 (Simulation time: 0 hr 11 min 57 sec) 
Heartbeat CPU  2 instructions:   98000003 cycles:  148491273 heartbeat IPC: 0.39931 cumulative IPC: 0.38332 (Simulation time: 0 hr 11 min 59 sec) 
Heartbeat CPU  0 instructions:   98000000 cycles:  148933274 heartbeat IPC: 0.37568 cumulative IPC: 0.38028 (Simulation time: 0 hr 12 min 0 sec) 
Heartbeat CPU  1 instructions:   98000001 cycles:  150528245 heartbeat IPC: 0.38379 cumulative IPC: 0.37813 (Simulation time: 0 hr 12 min 5 sec) 
Heartbeat CPU  3 instructions:   98000002 cycles:  150593180 heartbeat IPC: 0.39400 cumulative IPC: 0.36051 (Simulation time: 0 hr 12 min 5 sec) 
Heartbeat CPU  2 instructions:   99000002 cycles:  150989840 heartbeat IPC: 0.40023 cumulative IPC: 0.38365 (Simulation time: 0 hr 12 min 6 sec) 
Heartbeat CPU  0 instructions:   99000003 cycles:  151123697 heartbeat IPC: 0.45653 cumulative IPC: 0.38159 (Simulation time: 0 hr 12 min 7 sec) 
Heartbeat CPU  1 instructions:   99000002 cycles:  153037916 heartbeat IPC: 0.39846 cumulative IPC: 0.37852 (Simulation time: 0 hr 12 min 13 sec) 
*** Reached end of trace for Core: 0 Repeating trace: /data3/CASSANDRA/traces/cassandra_phase3_core0.trace.xz
Heartbeat CPU  0 instructions:  100000000 cycles:  153178174 heartbeat IPC: 0.48674 cumulative IPC: 0.38325 (Simulation time: 0 hr 12 min 13 sec) 
*** Reached end of trace for Core: 2 Repeating trace: /data3/CASSANDRA/traces/cassandra_phase3_core2.trace.xz
Heartbeat CPU  2 instructions:  100000000 cycles:  153784928 heartbeat IPC: 0.35777 cumulative IPC: 0.38310 (Simulation time: 0 hr 12 min 15 sec) 
Heartbeat CPU  3 instructions:   99000002 cycles:  153826091 heartbeat IPC: 0.30932 cumulative IPC: 0.35924 (Simulation time: 0 hr 12 min 15 sec) 
Heartbeat CPU  0 instructions:  101000002 cycles:  154819462 heartbeat IPC: 0.60928 cumulative IPC: 0.38608 (Simulation time: 0 hr 12 min 19 sec) 
*** Reached end of trace for Core: 1 Repeating trace: /data3/CASSANDRA/traces/cassandra_phase3_core1.trace.xz
Heartbeat CPU  1 instructions:  100000000 cycles:  155549851 heartbeat IPC: 0.39810 cumulative IPC: 0.37890 (Simulation time: 0 hr 12 min 21 sec) 
Heartbeat CPU  2 instructions:  101000002 cycles:  156139916 heartbeat IPC: 0.42463 cumulative IPC: 0.38384 (Simulation time: 0 hr 12 min 23 sec) 
*** Reached end of trace for Core: 3 Repeating trace: /data3/CASSANDRA/traces/cassandra_phase3_core3.trace.xz
Heartbeat CPU  3 instructions:  100000000 cycles:  156357283 heartbeat IPC: 0.39507 cumulative IPC: 0.35993 (Simulation time: 0 hr 12 min 24 sec) 
Heartbeat CPU  0 instructions:  102000001 cycles:  157329344 heartbeat IPC: 0.39842 cumulative IPC: 0.38631 (Simulation time: 0 hr 12 min 27 sec) 
Heartbeat CPU  2 instructions:  102000003 cycles:  158697780 heartbeat IPC: 0.39095 cumulative IPC: 0.38397 (Simulation time: 0 hr 12 min 31 sec) 
Heartbeat CPU  1 instructions:  101000000 cycles:  158913147 heartbeat IPC: 0.29733 cumulative IPC: 0.37687 (Simulation time: 0 hr 12 min 31 sec) 
Heartbeat CPU  3 instructions:  101000000 cycles:  159517695 heartbeat IPC: 0.31641 cumulative IPC: 0.35891 (Simulation time: 0 hr 12 min 33 sec) 
Heartbeat CPU  0 instructions:  103000003 cycles:  160271792 heartbeat IPC: 0.33985 cumulative IPC: 0.38531 (Simulation time: 0 hr 12 min 35 sec) 
Heartbeat CPU  2 instructions:  103000001 cycles:  161256826 heartbeat IPC: 0.39077 cumulative IPC: 0.38410 (Simulation time: 0 hr 12 min 38 sec) 
Heartbeat CPU  3 instructions:  102000001 cycles:  162151229 heartbeat IPC: 0.37972 cumulative IPC: 0.35931 (Simulation time: 0 hr 12 min 40 sec) 
Heartbeat CPU  0 instructions:  104000000 cycles:  162755223 heartbeat IPC: 0.40267 cumulative IPC: 0.38562 (Simulation time: 0 hr 12 min 42 sec) 
Heartbeat CPU  1 instructions:  102000003 cycles:  163576762 heartbeat IPC: 0.21443 cumulative IPC: 0.37146 (Simulation time: 0 hr 12 min 44 sec) 
Heartbeat CPU  2 instructions:  104000000 cycles:  163804292 heartbeat IPC: 0.39255 cumulative IPC: 0.38425 (Simulation time: 0 hr 12 min 45 sec) 
Heartbeat CPU  3 instructions:  103000003 cycles:  164780715 heartbeat IPC: 0.38030 cumulative IPC: 0.35970 (Simulation time: 0 hr 12 min 48 sec) 
Heartbeat CPU  0 instructions:  105000000 cycles:  165266165 heartbeat IPC: 0.39826 cumulative IPC: 0.38585 (Simulation time: 0 hr 12 min 49 sec) 
Heartbeat CPU  2 instructions:  105000002 cycles:  166366878 heartbeat IPC: 0.39023 cumulative IPC: 0.38436 (Simulation time: 0 hr 12 min 52 sec) 
Heartbeat CPU  1 instructions:  103000001 cycles:  166957113 heartbeat IPC: 0.29583 cumulative IPC: 0.36967 (Simulation time: 0 hr 12 min 54 sec) 
Heartbeat CPU  3 instructions:  104000000 cycles:  167430183 heartbeat IPC: 0.37743 cumulative IPC: 0.36003 (Simulation time: 0 hr 12 min 56 sec) 
Heartbeat CPU  2 instructions:  106000001 cycles:  168482388 heartbeat IPC: 0.47270 cumulative IPC: 0.38565 (Simulation time: 0 hr 12 min 59 sec) 
Heartbeat CPU  0 instructions:  106000003 cycles:  168706074 heartbeat IPC: 0.29071 cumulative IPC: 0.38359 (Simulation time: 0 hr 13 min 0 sec) 
Heartbeat CPU  1 instructions:  104000000 cycles:  169367966 heartbeat IPC: 0.41479 cumulative IPC: 0.37042 (Simulation time: 0 hr 13 min 2 sec) 
Heartbeat CPU  3 instructions:  105000000 cycles:  170221419 heartbeat IPC: 0.35826 cumulative IPC: 0.35999 (Simulation time: 0 hr 13 min 4 sec) 
Heartbeat CPU  0 instructions:  107000003 cycles:  171269678 heartbeat IPC: 0.39008 cumulative IPC: 0.38370 (Simulation time: 0 hr 13 min 7 sec) 
Heartbeat CPU  1 instructions:  105000003 cycles:  171815016 heartbeat IPC: 0.40866 cumulative IPC: 0.37105 (Simulation time: 0 hr 13 min 10 sec) 
Heartbeat CPU  2 instructions:  107000002 cycles:  171946999 heartbeat IPC: 0.28863 cumulative IPC: 0.38338 (Simulation time: 0 hr 13 min 10 sec) 
Heartbeat CPU  0 instructions:  108000000 cycles:  172866511 heartbeat IPC: 0.62624 cumulative IPC: 0.38630 (Simulation time: 0 hr 13 min 13 sec) 
Heartbeat CPU  3 instructions:  106000002 cycles:  173145865 heartbeat IPC: 0.34195 cumulative IPC: 0.35964 (Simulation time: 0 hr 13 min 14 sec) 
Heartbeat CPU  1 instructions:  106000000 cycles:  174139782 heartbeat IPC: 0.43015 cumulative IPC: 0.37196 (Simulation time: 0 hr 13 min 17 sec) 
Heartbeat CPU  2 instructions:  108000000 cycles:  174500554 heartbeat IPC: 0.39161 cumulative IPC: 0.38352 (Simulation time: 0 hr 13 min 18 sec) 
Heartbeat CPU  0 instructions:  109000001 cycles:  175480399 heartbeat IPC: 0.38257 cumulative IPC: 0.38623 (Simulation time: 0 hr 13 min 21 sec) 
Heartbeat CPU  3 instructions:  107000002 cycles:  175737163 heartbeat IPC: 0.38591 cumulative IPC: 0.36009 (Simulation time: 0 hr 13 min 22 sec) 
Heartbeat CPU  1 instructions:  107000001 cycles:  176602876 heartbeat IPC: 0.40599 cumulative IPC: 0.37251 (Simulation time: 0 hr 13 min 24 sec) 
Heartbeat CPU  2 instructions:  109000000 cycles:  176913009 heartbeat IPC: 0.41452 cumulative IPC: 0.38401 (Simulation time: 0 hr 13 min 25 sec) 
Heartbeat CPU  3 instructions:  108000000 cycles:  178338445 heartbeat IPC: 0.38443 cumulative IPC: 0.36050 (Simulation time: 0 hr 13 min 30 sec) 
Heartbeat CPU  0 instructions:  110000000 cycles:  178365474 heartbeat IPC: 0.34661 cumulative IPC: 0.38549 (Simulation time: 0 hr 13 min 30 sec) 
Heartbeat CPU  1 instructions:  108000000 cycles:  179097837 heartbeat IPC: 0.40081 cumulative IPC: 0.37296 (Simulation time: 0 hr 13 min 32 sec) 
Heartbeat CPU  2 instructions:  110000001 cycles:  179346219 heartbeat IPC: 0.41098 cumulative IPC: 0.38443 (Simulation time: 0 hr 13 min 33 sec) 
Heartbeat CPU  2 instructions:  111000002 cycles:  180903802 heartbeat IPC: 0.64202 cumulative IPC: 0.38698 (Simulation time: 0 hr 13 min 39 sec) 
Heartbeat CPU  1 instructions:  109000001 cycles:  181136928 heartbeat IPC: 0.49042 cumulative IPC: 0.37448 (Simulation time: 0 hr 13 min 39 sec) 
Heartbeat CPU  3 instructions:  109000001 cycles:  181195940 heartbeat IPC: 0.34996 cumulative IPC: 0.36031 (Simulation time: 0 hr 13 min 39 sec) 
Heartbeat CPU  0 instructions:  111000001 cycles:  181315121 heartbeat IPC: 0.33902 cumulative IPC: 0.38463 (Simulation time: 0 hr 13 min 40 sec) 
Heartbeat CPU  0 instructions:  112000000 cycles:  183538432 heartbeat IPC: 0.44978 cumulative IPC: 0.38553 (Simulation time: 0 hr 13 min 47 sec) 
Heartbeat CPU  1 instructions:  110000002 cycles:  183668286 heartbeat IPC: 0.39505 cumulative IPC: 0.37481 (Simulation time: 0 hr 13 min 47 sec) 
Heartbeat CPU  3 instructions:  110000002 cycles:  183848947 heartbeat IPC: 0.37693 cumulative IPC: 0.36058 (Simulation time: 0 hr 13 min 48 sec) 
Heartbeat CPU  2 instructions:  112000000 cycles:  184102556 heartbeat IPC: 0.31262 cumulative IPC: 0.38550 (Simulation time: 0 hr 13 min 49 sec) 
Heartbeat CPU  0 instructions:  113000002 cycles:  185362066 heartbeat IPC: 0.54836 cumulative IPC: 0.38737 (Simulation time: 0 hr 13 min 52 sec) 
Heartbeat CPU  3 instructions:  111000000 cycles:  186483956 heartbeat IPC: 0.37950 cumulative IPC: 0.36089 (Simulation time: 0 hr 13 min 56 sec) 
Heartbeat CPU  1 instructions:  111000003 cycles:  186674621 heartbeat IPC: 0.33263 cumulative IPC: 0.37403 (Simulation time: 0 hr 13 min 56 sec) 
Heartbeat CPU  2 instructions:  113000001 cycles:  186855789 heartbeat IPC: 0.36321 cumulative IPC: 0.38512 (Simulation time: 0 hr 13 min 57 sec) 
Heartbeat CPU  0 instructions:  114000000 cycles:  188271887 heartbeat IPC: 0.34366 cumulative IPC: 0.38659 (Simulation time: 0 hr 14 min 1 sec) 
Heartbeat CPU  1 instructions:  112000000 cycles:  188941694 heartbeat IPC: 0.44110 cumulative IPC: 0.37495 (Simulation time: 0 hr 14 min 4 sec) 
Heartbeat CPU  2 instructions:  114000000 cycles:  189028968 heartbeat IPC: 0.46015 cumulative IPC: 0.38611 (Simulation time: 0 hr 14 min 4 sec) 
Heartbeat CPU  3 instructions:  112000000 cycles:  189541857 heartbeat IPC: 0.32702 cumulative IPC: 0.36026 (Simulation time: 0 hr 14 min 5 sec) 
Heartbeat CPU  2 instructions:  115000001 cycles:  191457618 heartbeat IPC: 0.41175 cumulative IPC: 0.38648 (Simulation time: 0 hr 14 min 11 sec) 
Heartbeat CPU  0 instructions:  115000002 cycles:  191676609 heartbeat IPC: 0.29371 cumulative IPC: 0.38471 (Simulation time: 0 hr 14 min 12 sec) 
Heartbeat CPU  3 instructions:  113000000 cycles:  192719659 heartbeat IPC: 0.31468 cumulative IPC: 0.35941 (Simulation time: 0 hr 14 min 15 sec) 
Heartbeat CPU  1 instructions:  113000003 cycles:  193157233 heartbeat IPC: 0.23722 cumulative IPC: 0.37153 (Simulation time: 0 hr 14 min 16 sec) 
Heartbeat CPU  2 instructions:  116000000 cycles:  193566153 heartbeat IPC: 0.47426 cumulative IPC: 0.38757 (Simulation time: 0 hr 14 min 17 sec) 
Heartbeat CPU  0 instructions:  116000000 cycles:  194005775 heartbeat IPC: 0.42934 cumulative IPC: 0.38532 (Simulation time: 0 hr 14 min 19 sec) 
Heartbeat CPU  1 instructions:  114000002 cycles:  194808534 heartbeat IPC: 0.60558 cumulative IPC: 0.37379 (Simulation time: 0 hr 14 min 22 sec) 
Heartbeat CPU  3 instructions:  114000001 cycles:  195812022 heartbeat IPC: 0.32338 cumulative IPC: 0.35876 (Simulation time: 0 hr 14 min 25 sec) 
Heartbeat CPU  2 instructions:  117000002 cycles:  196352461 heartbeat IPC: 0.35890 cumulative IPC: 0.38711 (Simulation time: 0 hr 14 min 26 sec) 
Heartbeat CPU  0 instructions:  117000001 cycles:  197144849 heartbeat IPC: 0.31857 cumulative IPC: 0.38412 (Simulation time: 0 hr 14 min 29 sec) 
Heartbeat CPU  1 instructions:  115000003 cycles:  197503380 heartbeat IPC: 0.37108 cumulative IPC: 0.37374 (Simulation time: 0 hr 14 min 30 sec) 
Heartbeat CPU  3 instructions:  115000001 cycles:  198534765 heartbeat IPC: 0.36728 cumulative IPC: 0.35889 (Simulation time: 0 hr 14 min 32 sec) 
Heartbeat CPU  2 instructions:  118000000 cycles:  199158761 heartbeat IPC: 0.35634 cumulative IPC: 0.38661 (Simulation time: 0 hr 14 min 34 sec) 
Heartbeat CPU  0 instructions:  118000000 cycles:  199990180 heartbeat IPC: 0.35145 cumulative IPC: 0.38359 (Simulation time: 0 hr 14 min 37 sec) 
Heartbeat CPU  1 instructions:  116000000 cycles:  200479783 heartbeat IPC: 0.33597 cumulative IPC: 0.37311 (Simulation time: 0 hr 14 min 38 sec) 
Heartbeat CPU  3 instructions:  116000000 cycles:  201587924 heartbeat IPC: 0.32753 cumulative IPC: 0.35836 (Simulation time: 0 hr 14 min 42 sec) 
Heartbeat CPU  2 instructions:  119000003 cycles:  201716500 heartbeat IPC: 0.39097 cumulative IPC: 0.38668 (Simulation time: 0 hr 14 min 42 sec) 
Heartbeat CPU  0 instructions:  119000000 cycles:  202557862 heartbeat IPC: 0.38946 cumulative IPC: 0.38367 (Simulation time: 0 hr 14 min 45 sec) 
Heartbeat CPU  1 instructions:  117000000 cycles:  202773164 heartbeat IPC: 0.43604 cumulative IPC: 0.37391 (Simulation time: 0 hr 14 min 45 sec) 
Heartbeat CPU  2 instructions:  120000000 cycles:  204251503 heartbeat IPC: 0.39448 cumulative IPC: 0.38679 (Simulation time: 0 hr 14 min 50 sec) 
Heartbeat CPU  3 instructions:  117000002 cycles:  204384304 heartbeat IPC: 0.35761 cumulative IPC: 0.35834 (Simulation time: 0 hr 14 min 50 sec) 
Heartbeat CPU  0 instructions:  120000000 cycles:  205517682 heartbeat IPC: 0.33786 cumulative IPC: 0.38293 (Simulation time: 0 hr 14 min 53 sec) 
Heartbeat CPU  1 instructions:  118000000 cycles:  205802612 heartbeat IPC: 0.33009 cumulative IPC: 0.37318 (Simulation time: 0 hr 14 min 54 sec) 
Heartbeat CPU  3 instructions:  118000002 cycles:  206892383 heartbeat IPC: 0.39871 cumulative IPC: 0.35890 (Simulation time: 0 hr 14 min 57 sec) 
Heartbeat CPU  0 instructions:  121000001 cycles:  207791152 heartbeat IPC: 0.43986 cumulative IPC: 0.38363 (Simulation time: 0 hr 15 min 0 sec) 
Heartbeat CPU  2 instructions:  121000000 cycles:  207941709 heartbeat IPC: 0.27099 cumulative IPC: 0.38447 (Simulation time: 0 hr 15 min 1 sec) 
Heartbeat CPU  1 instructions:  119000002 cycles:  208491117 heartbeat IPC: 0.37195 cumulative IPC: 0.37317 (Simulation time: 0 hr 15 min 3 sec) 
Heartbeat CPU  0 instructions:  122000003 cycles:  209131709 heartbeat IPC: 0.74596 cumulative IPC: 0.38625 (Simulation time: 0 hr 15 min 5 sec) 
Heartbeat CPU  3 instructions:  119000002 cycles:  209380488 heartbeat IPC: 0.40191 cumulative IPC: 0.35947 (Simulation time: 0 hr 15 min 5 sec) 
Heartbeat CPU  1 instructions:  120000000 cycles:  211222109 heartbeat IPC: 0.36617 cumulative IPC: 0.37306 (Simulation time: 0 hr 15 min 11 sec) 
Heartbeat CPU  2 instructions:  122000003 cycles:  211346266 heartbeat IPC: 0.29372 cumulative IPC: 0.38282 (Simulation time: 0 hr 15 min 11 sec) 
Heartbeat CPU  0 instructions:  123000001 cycles:  211610330 heartbeat IPC: 0.40345 cumulative IPC: 0.38647 (Simulation time: 0 hr 15 min 12 sec) 
Heartbeat CPU  3 instructions:  120000000 cycles:  211858550 heartbeat IPC: 0.40354 cumulative IPC: 0.36005 (Simulation time: 0 hr 15 min 13 sec) 
Heartbeat CPU  2 instructions:  123000000 cycles:  214382650 heartbeat IPC: 0.32934 cumulative IPC: 0.38197 (Simulation time: 0 hr 15 min 20 sec) 
Heartbeat CPU  1 instructions:  121000001 cycles:  214419236 heartbeat IPC: 0.31278 cumulative IPC: 0.37205 (Simulation time: 0 hr 15 min 21 sec) 
Heartbeat CPU  0 instructions:  124000000 cycles:  214511381 heartbeat IPC: 0.34470 cumulative IPC: 0.38584 (Simulation time: 0 hr 15 min 21 sec) 
Heartbeat CPU  3 instructions:  121000001 cycles:  215064363 heartbeat IPC: 0.31193 cumulative IPC: 0.35925 (Simulation time: 0 hr 15 min 22 sec) 
Heartbeat CPU  1 instructions:  122000002 cycles:  217070172 heartbeat IPC: 0.37723 cumulative IPC: 0.37213 (Simulation time: 0 hr 15 min 27 sec) 
Heartbeat CPU  0 instructions:  125000002 cycles:  218541947 heartbeat IPC: 0.24810 cumulative IPC: 0.38299 (Simulation time: 0 hr 15 min 31 sec) 
Heartbeat CPU  3 instructions:  122000001 cycles:  218658429 heartbeat IPC: 0.27824 cumulative IPC: 0.35775 (Simulation time: 0 hr 15 min 32 sec) 
Heartbeat CPU  1 instructions:  123000003 cycles:  219864854 heartbeat IPC: 0.35782 cumulative IPC: 0.37192 (Simulation time: 0 hr 15 min 35 sec) 
Heartbeat CPU  2 instructions:  124000000 cycles:  220409375 heartbeat IPC: 0.16593 cumulative IPC: 0.37536 (Simulation time: 0 hr 15 min 36 sec) 
Heartbeat CPU  0 instructions:  126000003 cycles:  221169774 heartbeat IPC: 0.38054 cumulative IPC: 0.38296 (Simulation time: 0 hr 15 min 39 sec) 
Heartbeat CPU  3 instructions:  123000003 cycles:  221220876 heartbeat IPC: 0.39025 cumulative IPC: 0.35818 (Simulation time: 0 hr 15 min 39 sec) 
Heartbeat CPU  1 instructions:  124000000 cycles:  222794770 heartbeat IPC: 0.34131 cumulative IPC: 0.37147 (Simulation time: 0 hr 15 min 44 sec) 
Heartbeat CPU  2 instructions:  125000003 cycles:  222983422 heartbeat IPC: 0.38849 cumulative IPC: 0.37553 (Simulation time: 0 hr 15 min 44 sec) 
Heartbeat CPU  0 instructions:  127000002 cycles:  223251645 heartbeat IPC: 0.48034 cumulative IPC: 0.38398 (Simulation time: 0 hr 15 min 46 sec) 
Heartbeat CPU  3 instructions:  124000000 cycles:  223838511 heartbeat IPC: 0.38202 cumulative IPC: 0.35849 (Simulation time: 0 hr 15 min 48 sec) 
Heartbeat CPU  1 instructions:  125000002 cycles:  225865244 heartbeat IPC: 0.32568 cumulative IPC: 0.37078 (Simulation time: 0 hr 15 min 53 sec) 
Heartbeat CPU  0 instructions:  128000000 cycles:  226373468 heartbeat IPC: 0.32033 cumulative IPC: 0.38300 (Simulation time: 0 hr 15 min 55 sec) 
Heartbeat CPU  3 instructions:  125000002 cycles:  226680454 heartbeat IPC: 0.35187 cumulative IPC: 0.35839 (Simulation time: 0 hr 15 min 55 sec) 
Heartbeat CPU  2 instructions:  126000001 cycles:  226774695 heartbeat IPC: 0.26376 cumulative IPC: 0.37344 (Simulation time: 0 hr 15 min 56 sec) 
Heartbeat CPU  1 instructions:  126000002 cycles:  229854771 heartbeat IPC: 0.25066 cumulative IPC: 0.36845 (Simulation time: 0 hr 16 min 2 sec) 
Heartbeat CPU  3 instructions:  126000000 cycles:  231128486 heartbeat IPC: 0.22482 cumulative IPC: 0.35553 (Simulation time: 0 hr 16 min 6 sec) 
Heartbeat CPU  0 instructions:  129000000 cycles:  231294774 heartbeat IPC: 0.20320 cumulative IPC: 0.37874 (Simulation time: 0 hr 16 min 6 sec) 
[...]
Core_0_L2C_prefetch_filled 3143618
Core_0_L2C_prefetch_useful 1075419
Core_0_L2C_prefetch_useless 2066083
Core_0_L2C_prefetch_late 64910
Core_0_L2C_average_miss_latency 176.11111

Core_0_L2C_rq_access 2071608
Core_0_L2C_rq_forward 0
Core_0_L2C_rq_merged 0
Core_0_L2C_rq_to_cache 2071563
Core_0_L2C_rq_full 0

Core_0_L2C_wq_access 444936
Core_0_L2C_wq_forward 49
Core_0_L2C_wq_merged 0
Core_0_L2C_wq_to_cache 444936
Core_0_L2C_wq_full 0

Core_0_L2C_pq_access 4144222
Core_0_L2C_pq_forward 0
Core_0_L2C_pq_merged 2881
Core_0_L2C_pq_to_cache 4141337
Core_0_L2C_pq_full 0

Core_0_L2C_acc_epochs 196148
Core_0_L2C_acc_level_0 11892
Core_0_L2C_acc_level_1 41918
Core_0_L2C_acc_level_2 61032
Core_0_L2C_acc_level_3 29460
Core_0_L2C_acc_level_4 11967
Core_0_L2C_acc_level_5 6542
Core_0_L2C_acc_level_6 4511
Core_0_L2C_acc_level_7 3804
Core_0_L2C_acc_level_8 4168
Core_0_L2C_acc_level_9 20854

Core_0_LLC_total_access 3731286
Core_0_LLC_total_hit 1746417
Core_0_LLC_total_miss 1984869
Core_0_LLC_loads 746704
Core_0_LLC_load_hit 381646
Core_0_LLC_load_miss 365058
Core_0_LLC_RFOs 135167
Core_0_LLC_RFO_hit 50924
Core_0_LLC_RFO_miss 84243
Core_0_LLC_prefetches 2443005
Core_0_LLC_prefetch_hit 1049377
Core_0_LLC_prefetch_miss 1393628
Core_0_LLC_writebacks 406410
Core_0_LLC_writeback_hit 264470
Core_0_LLC_writeback_miss 141940
Core_0_LLC_prefetch_requested 0
Core_0_LLC_prefetch_dropped 0
Core_0_LLC_prefetch_issued 0
Core_0_LLC_prefetch_filled 7173492
Core_0_LLC_prefetch_useful 131396
Core_0_LLC_prefetch_useless 6975749
Core_0_LLC_prefetch_late 0
Core_0_LLC_average_miss_latency 809.41303

Core_0_LLC_rq_access 3466044
Core_0_LLC_rq_forward 0
Core_0_LLC_rq_merged 0
Core_0_LLC_rq_to_cache 3466016
Core_0_LLC_rq_full 0

Core_0_LLC_wq_access 1594963
Core_0_LLC_wq_forward 41
Core_0_LLC_wq_merged 0
Core_0_LLC_wq_to_cache 1594963
Core_0_LLC_wq_full 0

Core_0_LLC_pq_access 11685019
Core_0_LLC_pq_forward 0
Core_0_LLC_pq_merged 0
Core_0_LLC_pq_to_cache 11685005
Core_0_LLC_pq_full 0

Core_0_LLC_acc_epochs 468195
Core_0_LLC_acc_level_0 445224
Core_0_LLC_acc_level_1 16145
Core_0_LLC_acc_level_2 3911
Core_0_LLC_acc_level_3 1043
Core_0_LLC_acc_level_4 303
Core_0_LLC_acc_level_5 996
Core_0_LLC_acc_level_6 150
Core_0_LLC_acc_level_7 89
Core_0_LLC_acc_level_8 60
Core_0_LLC_acc_level_9 274

Core_0_major_page_fault 0
Core_0_minor_page_fault 51913

Core_1_instructions 150000002
Core_1_cycles 452860342
Core_1_IPC 0.33123

Core_1_branch_prediction_accuracy 97.41669
Core_1_branch_MPKI 3.56276
Core_1_average_ROB_occupancy_at_mispredict 94.28760

Core_1_L1D_total_access 16384719
Core_1_L1D_total_hit 15038379
Core_1_L1D_total_miss 1346340
Core_1_L1D_loads 10849053
Core_1_L1D_load_hit 9683807
Core_1_L1D_load_miss 1165246
Core_1_L1D_RFOs 5535666
Core_1_L1D_RFO_hit 5354572
Core_1_L1D_RFO_miss 181094
Core_1_L1D_prefetches 0
Core_1_L1D_prefetch_hit 0
Core_1_L1D_prefetch_miss 0
Core_1_L1D_writebacks 0
Core_1_L1D_writeback_hit 0
Core_1_L1D_writeback_miss 0
Core_1_L1D_prefetch_requested 0
Core_1_L1D_prefetch_dropped 0
Core_1_L1D_prefetch_issued 0
Core_1_L1D_prefetch_filled 0
Core_1_L1D_prefetch_useful 0
Core_1_L1D_prefetch_useless 0
Core_1_L1D_prefetch_late 0
Core_1_L1D_average_miss_latency 137.85305

Core_1_L1D_rq_access 19083242
Core_1_L1D_rq_forward 0
Core_1_L1D_rq_merged 7936452
Core_1_L1D_rq_to_cache 11146478
Core_1_L1D_rq_full 0

Core_1_L1D_wq_access 6247016
Core_1_L1D_wq_forward 312
Core_1_L1D_wq_merged 133629
Core_1_L1D_wq_to_cache 6113387
Core_1_L1D_wq_full 1182

Core_1_L1D_pq_access 0
Core_1_L1D_pq_forward 0
Core_1_L1D_pq_merged 0
Core_1_L1D_pq_to_cache 0
Core_1_L1D_pq_full 0

Core_1_L1D_acc_epochs 191062
Core_1_L1D_acc_level_0 191062
Core_1_L1D_acc_level_1 0
Core_1_L1D_acc_level_2 0
Core_1_L1D_acc_level_3 0
Core_1_L1D_acc_level_4 0
Core_1_L1D_acc_level_5 0
Core_1_L1D_acc_level_6 0
Core_1_L1D_acc_level_7 0
Core_1_L1D_acc_level_8 0
Core_1_L1D_acc_level_9 0

Core_1_L1I_total_access 31310385
Core_1_L1I_total_hit 30867769
Core_1_L1I_total_miss 442616
Core_1_L1I_loads 31310385
Core_1_L1I_load_hit 30867769
Core_1_L1I_load_miss 442616
Core_1_L1I_RFOs 0
Core_1_L1I_RFO_hit 0
Core_1_L1I_RFO_miss 0
Core_1_L1I_prefetches 0
Core_1_L1I_prefetch_hit 0
Core_1_L1I_prefetch_miss 0
Core_1_L1I_writebacks 0
Core_1_L1I_writeback_hit 0
Core_1_L1I_writeback_miss 0
Core_1_L1I_prefetch_requested 0
Core_1_L1I_prefetch_dropped 0
Core_1_L1I_prefetch_issued 0
Core_1_L1I_prefetch_filled 0
Core_1_L1I_prefetch_useful 0
Core_1_L1I_prefetch_useless 0
Core_1_L1I_prefetch_late 0
Core_1_L1I_average_miss_latency 77.49290

Core_1_L1I_rq_access 150846417
Core_1_L1I_rq_forward 0
Core_1_L1I_rq_merged 119137575
Core_1_L1I_rq_to_cache 31708842
Core_1_L1I_rq_full 0

Core_1_L1I_wq_access 0
Core_1_L1I_wq_forward 0
Core_1_L1I_wq_merged 0
Core_1_L1I_wq_to_cache 0
Core_1_L1I_wq_full 0

Core_1_L1I_pq_access 0
Core_1_L1I_pq_forward 0
Core_1_L1I_pq_merged 0
Core_1_L1I_pq_to_cache 0
Core_1_L1I_pq_full 0

Core_1_L1I_acc_epochs 191062
Core_1_L1I_acc_level_0 191062
Core_1_L1I_acc_level_1 0
Core_1_L1I_acc_level_2 0
Core_1_L1I_acc_level_3 0
Core_1_L1I_acc_level_4 0
Core_1_L1I_acc_level_5 0
Core_1_L1I_acc_level_6 0
Core_1_L1I_acc_level_7 0
Core_1_L1I_acc_level_8 0
Core_1_L1I_acc_level_9 0

Core_1_L2C_total_access 4943865
Core_1_L2C_total_hit 1791420
Core_1_L2C_total_miss 3152445
Core_1_L2C_loads 1607855
Core_1_L2C_load_hit 867065
Core_1_L2C_load_miss 740790
Core_1_L2C_RFOs 181072
Core_1_L2C_RFO_hit 30367
Core_1_L2C_RFO_miss 150705
Core_1_L2C_prefetches 2727404
Core_1_L2C_prefetch_hit 488216
Core_1_L2C_prefetch_miss 2239188
Core_1_L2C_writebacks 427534
Core_1_L2C_writeback_hit 405772
Core_1_L2C_writeback_miss 21762
Core_1_L2C_prefetch_requested 3708662
Core_1_L2C_prefetch_dropped 90
Core_1_L2C_prefetch_issued 3708572
Core_1_L2C_prefetch_filled 2843660
Core_1_L2C_prefetch_useful 853064
Core_1_L2C_prefetch_useless 1988353
Core_1_L2C_prefetch_late 60748
Core_1_L2C_average_miss_latency 177.31347

Core_1_L2C_rq_access 1806505
Core_1_L2C_rq_forward 0
Core_1_L2C_rq_merged 0
Core_1_L2C_rq_to_cache 1806475
Core_1_L2C_rq_full 0

Core_1_L2C_wq_access 430356
Core_1_L2C_wq_forward 32
Core_1_L2C_wq_merged 0
Core_1_L2C_wq_to_cache 430356
Core_1_L2C_wq_full 0

Core_1_L2C_pq_access 3708572
Core_1_L2C_pq_forward 0
Core_1_L2C_pq_merged 1799
Core_1_L2C_pq_to_cache 3706771
Core_1_L2C_pq_full 0

Core_1_L2C_acc_epochs 191062
Core_1_L2C_acc_level_0 14833
Core_1_L2C_acc_level_1 50415
Core_1_L2C_acc_level_2 57410
Core_1_L2C_acc_level_3 24883
Core_1_L2C_acc_level_4 10317
Core_1_L2C_acc_level_5 5976
Core_1_L2C_acc_level_6 4212
Core_1_L2C_acc_level_7 3469
Core_1_L2C_acc_level_8 3541
Core_1_L2C_acc_level_9 16006

Core_1_LLC_total_access 3522650
Core_1_LLC_total_hit 1527311
Core_1_LLC_total_miss 1995339
Core_1_LLC_loads 681577
Core_1_LLC_load_hit 319851
Core_1_LLC_load_miss 361726
Core_1_LLC_RFOs 150382
Core_1_LLC_RFO_hit 55898
Core_1_LLC_RFO_miss 94484
Core_1_LLC_prefetches 2298714
Core_1_LLC_prefetch_hit 913357
Core_1_LLC_prefetch_miss 1385357
Core_1_LLC_writebacks 391977
Core_1_LLC_writeback_hit 238205
Core_1_LLC_writeback_miss 153772
Core_1_LLC_prefetch_requested 0
Core_1_LLC_prefetch_dropped 0
Core_1_LLC_prefetch_issued 0
Core_1_LLC_prefetch_filled 7173492
Core_1_LLC_prefetch_useful 131396
Core_1_LLC_prefetch_useless 6975749
Core_1_LLC_prefetch_late 0
Core_1_LLC_average_miss_latency 805.16586

Core_1_LLC_rq_access 3466044
Core_1_LLC_rq_forward 0
Core_1_LLC_rq_merged 0
Core_1_LLC_rq_to_cache 3466016
Core_1_LLC_rq_full 0

Core_1_LLC_wq_access 1594963
Core_1_LLC_wq_forward 41
Core_1_LLC_wq_merged 0
Core_1_LLC_wq_to_cache 1594963
Core_1_LLC_wq_full 0

Core_1_LLC_pq_access 11685019
Core_1_LLC_pq_forward 0
Core_1_LLC_pq_merged 0
Core_1_LLC_pq_to_cache 11685005
Core_1_LLC_pq_full 0

Core_1_LLC_acc_epochs 468195
Core_1_LLC_acc_level_0 445224
Core_1_LLC_acc_level_1 16145
Core_1_LLC_acc_level_2 3911
Core_1_LLC_acc_level_3 1043
Core_1_LLC_acc_level_4 303
Core_1_LLC_acc_level_5 996
Core_1_LLC_acc_level_6 150
Core_1_LLC_acc_level_7 89
Core_1_LLC_acc_level_8 60
Core_1_LLC_acc_level_9 274

Core_1_major_page_fault 0
Core_1_minor_page_fault 49454

Core_2_instructions 150000001
Core_2_cycles 455844460
Core_2_IPC 0.32906

Core_2_branch_prediction_accuracy 97.55384
Core_2_branch_MPKI 3.35372
Core_2_average_ROB_occupancy_at_mispredict 99.07823

Core_2_L1D_total_access 16108767
Core_2_L1D_total_hit 14645758
Core_2_L1D_total_miss 1463009
Core_2_L1D_loads 10894681
Core_2_L1D_load_hit 9608004
Core_2_L1D_load_miss 1286677
Core_2_L1D_RFOs 5214086
Core_2_L1D_RFO_hit 5037754
Core_2_L1D_RFO_miss 176332
Core_2_L1D_prefetches 0
Core_2_L1D_prefetch_hit 0
Core_2_L1D_prefetch_miss 0
Core_2_L1D_writebacks 0
Core_2_L1D_writeback_hit 0
Core_2_L1D_writeback_miss 0
Core_2_L1D_prefetch_requested 0
Core_2_L1D_prefetch_dropped 0
Core_2_L1D_prefetch_issued 0
Core_2_L1D_prefetch_filled 0
Core_2_L1D_prefetch_useful 0
Core_2_L1D_prefetch_useless 0
Core_2_L1D_prefetch_late 0
Core_2_L1D_average_miss_latency 138.78080

Core_2_L1D_rq_access 18862701
Core_2_L1D_rq_forward 0
Core_2_L1D_rq_merged 7723089
Core_2_L1D_rq_to_cache 11139361
Core_2_L1D_rq_full 0

Core_2_L1D_wq_access 5887499
Core_2_L1D_wq_forward 251
Core_2_L1D_wq_merged 138210
Core_2_L1D_wq_to_cache 5749289
Core_2_L1D_wq_full 0

Core_2_L1D_pq_access 0
Core_2_L1D_pq_forward 0
Core_2_L1D_pq_merged 0
Core_2_L1D_pq_to_cache 0
Core_2_L1D_pq_full 0

Core_2_L1D_acc_epochs 191999
Core_2_L1D_acc_level_0 191999
Core_2_L1D_acc_level_1 0
Core_2_L1D_acc_level_2 0
Core_2_L1D_acc_level_3 0
Core_2_L1D_acc_level_4 0
Core_2_L1D_acc_level_5 0
Core_2_L1D_acc_level_6 0
Core_2_L1D_acc_level_7 0
Core_2_L1D_acc_level_8 0
Core_2_L1D_acc_level_9 0

Core_2_L1I_total_access 31248760
Core_2_L1I_total_hit 30865340
Core_2_L1I_total_miss 383420
Core_2_L1I_loads 31248760
Core_2_L1I_load_hit 30865340
Core_2_L1I_load_miss 383420
Core_2_L1I_RFOs 0
Core_2_L1I_RFO_hit 0
Core_2_L1I_RFO_miss 0
Core_2_L1I_prefetches 0
Core_2_L1I_prefetch_hit 0
Core_2_L1I_prefetch_miss 0
Core_2_L1I_writebacks 0
Core_2_L1I_writeback_hit 0
Core_2_L1I_writeback_miss 0
Core_2_L1I_prefetch_requested 0
Core_2_L1I_prefetch_dropped 0
Core_2_L1I_prefetch_issued 0
Core_2_L1I_prefetch_filled 0
Core_2_L1I_prefetch_useful 0
Core_2_L1I_prefetch_useless 0
Core_2_L1I_prefetch_late 0
Core_2_L1I_average_miss_latency 78.62505

Core_2_L1I_rq_access 150000250
Core_2_L1I_rq_forward 0
Core_2_L1I_rq_merged 118536517
Core_2_L1I_rq_to_cache 31463733
Core_2_L1I_rq_full 0

Core_2_L1I_wq_access 0
Core_2_L1I_wq_forward 0
Core_2_L1I_wq_merged 0
Core_2_L1I_wq_to_cache 0
Core_2_L1I_wq_full 0

Core_2_L1I_pq_access 0
Core_2_L1I_pq_forward 0
Core_2_L1I_pq_merged 0
Core_2_L1I_pq_to_cache 0
Core_2_L1I_pq_full 0

Core_2_L1I_acc_epochs 191999
Core_2_L1I_acc_level_0 191999
Core_2_L1I_acc_level_1 0
Core_2_L1I_acc_level_2 0
Core_2_L1I_acc_level_3 0
Core_2_L1I_acc_level_4 0
Core_2_L1I_acc_level_5 0
Core_2_L1I_acc_level_6 0
Core_2_L1I_acc_level_7 0
Core_2_L1I_acc_level_8 0
Core_2_L1I_acc_level_9 0

Core_2_L2C_total_access 4793057
Core_2_L2C_total_hit 1658373
Core_2_L2C_total_miss 3134684
Core_2_L2C_loads 1670093
Core_2_L2C_load_hit 843382
Core_2_L2C_load_miss 826711
Core_2_L2C_RFOs 176317
Core_2_L2C_RFO_hit 24246
Core_2_L2C_RFO_miss 152071
Core_2_L2C_prefetches 2536508
Core_2_L2C_prefetch_hit 397296
Core_2_L2C_prefetch_miss 2139212
Core_2_L2C_writebacks 410139
Core_2_L2C_writeback_hit 393449
Core_2_L2C_writeback_miss 16690
Core_2_L2C_prefetch_requested 3746360
Core_2_L2C_prefetch_dropped 428
Core_2_L2C_prefetch_issued 3745932
Core_2_L2C_prefetch_filled 2880899
Core_2_L2C_prefetch_useful 956695
Core_2_L2C_prefetch_useless 1922443
Core_2_L2C_prefetch_late 93058
Core_2_L2C_average_miss_latency 176.33691

Core_2_L2C_rq_access 1846429
Core_2_L2C_rq_forward 0
Core_2_L2C_rq_merged 0
Core_2_L2C_rq_to_cache 1846410
Core_2_L2C_rq_full 0

Core_2_L2C_wq_access 410139
Core_2_L2C_wq_forward 19
Core_2_L2C_wq_merged 0
Core_2_L2C_wq_to_cache 410139
Core_2_L2C_wq_full 0

Core_2_L2C_pq_access 3745932
Core_2_L2C_pq_forward 0
Core_2_L2C_pq_merged 9273
Core_2_L2C_pq_to_cache 3736659
Core_2_L2C_pq_full 0

Core_2_L2C_acc_epochs 191999
Core_2_L2C_acc_level_0 12690
Core_2_L2C_acc_level_1 38067
Core_2_L2C_acc_level_2 58511
Core_2_L2C_acc_level_3 32180
Core_2_L2C_acc_level_4 13377
Core_2_L2C_acc_level_5 6773
Core_2_L2C_acc_level_6 4811
Core_2_L2C_acc_level_7 4003
Core_2_L2C_acc_level_8 4001
Core_2_L2C_acc_level_9 17586

Core_2_LLC_total_access 3503849
Core_2_LLC_total_hit 1457405
Core_2_LLC_total_miss 2046444
Core_2_LLC_loads 735726
Core_2_LLC_load_hit 340697
Core_2_LLC_load_miss 395029
Core_2_LLC_RFOs 151795
Core_2_LLC_RFO_hit 46616
Core_2_LLC_RFO_miss 105179
Core_2_LLC_prefetches 2230467
Core_2_LLC_prefetch_hit 853548
Core_2_LLC_prefetch_miss 1376919
Core_2_LLC_writebacks 385861
Core_2_LLC_writeback_hit 216544
Core_2_LLC_writeback_miss 169317
Core_2_LLC_prefetch_requested 0
Core_2_LLC_prefetch_dropped 0
Core_2_LLC_prefetch_issued 0
Core_2_LLC_prefetch_filled 7173492
Core_2_LLC_prefetch_useful 131396
Core_2_LLC_prefetch_useless 6975749
Core_2_LLC_prefetch_late 0
Core_2_LLC_average_miss_latency 785.05878

Core_2_LLC_rq_access 3466044
Core_2_LLC_rq_forward 0
Core_2_LLC_rq_merged 0
Core_2_LLC_rq_to_cache 3466016
Core_2_LLC_rq_full 0

Core_2_LLC_wq_access 1594963
Core_2_LLC_wq_forward 41
Core_2_LLC_wq_merged 0
Core_2_LLC_wq_to_cache 1594963
Core_2_LLC_wq_full 0

Core_2_LLC_pq_access 11685019
Core_2_LLC_pq_forward 0
Core_2_LLC_pq_merged 0
Core_2_LLC_pq_to_cache 11685005
Core_2_LLC_pq_full 0

Core_2_LLC_acc_epochs 468195
Core_2_LLC_acc_level_0 445224
Core_2_LLC_acc_level_1 16145
Core_2_LLC_acc_level_2 3911
Core_2_LLC_acc_level_3 1043
Core_2_LLC_acc_level_4 303
Core_2_LLC_acc_level_5 996
Core_2_LLC_acc_level_6 150
Core_2_LLC_acc_level_7 89
Core_2_LLC_acc_level_8 60
Core_2_LLC_acc_level_9 274

Core_2_major_page_fault 0
Core_2_minor_page_fault 50901

Core_3_instructions 150000002
Core_3_cycles 453566992
Core_3_IPC 0.33071

Core_3_branch_prediction_accuracy 97.68500
Core_3_branch_MPKI 3.12895
Core_3_average_ROB_occupancy_at_mispredict 105.71024

Core_3_L1D_total_access 16683785
Core_3_L1D_total_hit 15405835
Core_3_L1D_total_miss 1277950
Core_3_L1D_loads 11173340
Core_3_L1D_load_hit 10064627
Core_3_L1D_load_miss 1108713
Core_3_L1D_RFOs 5510445
Core_3_L1D_RFO_hit 5341208
Core_3_L1D_RFO_miss 169237
Core_3_L1D_prefetches 0
Core_3_L1D_prefetch_hit 0
Core_3_L1D_prefetch_miss 0
Core_3_L1D_writebacks 0
Core_3_L1D_writeback_hit 0
Core_3_L1D_writeback_miss 0
Core_3_L1D_prefetch_requested 0
Core_3_L1D_prefetch_dropped 0
Core_3_L1D_prefetch_issued 0
Core_3_L1D_prefetch_filled 0
Core_3_L1D_prefetch_useful 0
Core_3_L1D_prefetch_useless 0
Core_3_L1D_prefetch_late 0
Core_3_L1D_average_miss_latency 153.78522

Core_3_L1D_rq_access 18783067
Core_3_L1D_rq_forward 0
Core_3_L1D_rq_merged 7494821
Core_3_L1D_rq_to_cache 11287826
Core_3_L1D_rq_full 0

Core_3_L1D_wq_access 6192497
Core_3_L1D_wq_forward 420
Core_3_L1D_wq_merged 133343
Core_3_L1D_wq_to_cache 6059154
Core_3_L1D_wq_full 0

Core_3_L1D_pq_access 0
Core_3_L1D_pq_forward 0
Core_3_L1D_pq_merged 0
Core_3_L1D_pq_to_cache 0
Core_3_L1D_pq_full 0

Core_3_L1D_acc_epochs 195325
Core_3_L1D_acc_level_0 195325
Core_3_L1D_acc_level_1 0
Core_3_L1D_acc_level_2 0
Core_3_L1D_acc_level_3 0
Core_3_L1D_acc_level_4 0
Core_3_L1D_acc_level_5 0
Core_3_L1D_acc_level_6 0
Core_3_L1D_acc_level_7 0
Core_3_L1D_acc_level_8 0
Core_3_L1D_acc_level_9 0

Core_3_L1I_total_access 31878414
Core_3_L1I_total_hit 31550204
Core_3_L1I_total_miss 328210
Core_3_L1I_loads 31878414
Core_3_L1I_load_hit 31550204
Core_3_L1I_load_miss 328210
Core_3_L1I_RFOs 0
Core_3_L1I_RFO_hit 0
Core_3_L1I_RFO_miss 0
Core_3_L1I_prefetches 0
Core_3_L1I_prefetch_hit 0
Core_3_L1I_prefetch_miss 0
Core_3_L1I_writebacks 0
Core_3_L1I_writeback_hit 0
Core_3_L1I_writeback_miss 0
Core_3_L1I_prefetch_requested 0
Core_3_L1I_prefetch_dropped 0
Core_3_L1I_prefetch_issued 0
Core_3_L1I_prefetch_filled 0
Core_3_L1I_prefetch_useful 0
Core_3_L1I_prefetch_useless 0
Core_3_L1I_prefetch_late 0
Core_3_L1I_average_miss_latency 80.73076

Core_3_L1I_rq_access 150861013
Core_3_L1I_rq_forward 0
Core_3_L1I_rq_merged 118629296
Core_3_L1I_rq_to_cache 32231717
Core_3_L1I_rq_full 0

Core_3_L1I_wq_access 0
Core_3_L1I_wq_forward 0
Core_3_L1I_wq_merged 0
Core_3_L1I_wq_to_cache 0
Core_3_L1I_wq_full 0

Core_3_L1I_pq_access 0
Core_3_L1I_pq_forward 0
Core_3_L1I_pq_merged 0
Core_3_L1I_pq_to_cache 0
Core_3_L1I_pq_full 0

Core_3_L1I_acc_epochs 195325
Core_3_L1I_acc_level_0 195325
Core_3_L1I_acc_level_1 0
Core_3_L1I_acc_level_2 0
Core_3_L1I_acc_level_3 0
Core_3_L1I_acc_level_4 0
Core_3_L1I_acc_level_5 0
Core_3_L1I_acc_level_6 0
Core_3_L1I_acc_level_7 0
Core_3_L1I_acc_level_8 0
Core_3_L1I_acc_level_9 0

Core_3_L2C_total_access 4378109
Core_3_L2C_total_hit 1476062
Core_3_L2C_total_miss 2902047
Core_3_L2C_loads 1436918
Core_3_L2C_load_hit 706332
Core_3_L2C_load_miss 730586
Core_3_L2C_RFOs 169227
Core_3_L2C_RFO_hit 21514
Core_3_L2C_RFO_miss 147713
Core_3_L2C_prefetches 2354711
Core_3_L2C_prefetch_hit 345990
Core_3_L2C_prefetch_miss 2008721
Core_3_L2C_writebacks 417253
Core_3_L2C_writeback_hit 402226
Core_3_L2C_writeback_miss 15027
Core_3_L2C_prefetch_requested 3181152
Core_3_L2C_prefetch_dropped 25
Core_3_L2C_prefetch_issued 3181127
Core_3_L2C_prefetch_filled 2538430
Core_3_L2C_prefetch_useful 742530
Core_3_L2C_prefetch_useless 1793887
Core_3_L2C_prefetch_late 59693
Core_3_L2C_average_miss_latency 187.85137

Core_3_L2C_rq_access 1612148
Core_3_L2C_rq_forward 0
Core_3_L2C_rq_merged 0
Core_3_L2C_rq_to_cache 1612133
Core_3_L2C_rq_full 0

Core_3_L2C_wq_access 418455
Core_3_L2C_wq_forward 16
Core_3_L2C_wq_merged 0
Core_3_L2C_wq_to_cache 418455
Core_3_L2C_wq_full 0

Core_3_L2C_pq_access 3181127
Core_3_L2C_pq_forward 0
Core_3_L2C_pq_merged 1093
Core_3_L2C_pq_to_cache 3180033
Core_3_L2C_pq_full 0

Core_3_L2C_acc_epochs 195325
Core_3_L2C_acc_level_0 13540
Core_3_L2C_acc_level_1 44580
Core_3_L2C_acc_level_2 64265
Core_3_L2C_acc_level_3 32165
Core_3_L2C_acc_level_4 12433
Core_3_L2C_acc_level_5 6280
Core_3_L2C_acc_level_6 4341
Core_3_L2C_acc_level_7 3449
Core_3_L2C_acc_level_8 3190
Core_3_L2C_acc_level_9 11082

Core_3_LLC_total_access 3282872
Core_3_LLC_total_hit 1258650
Core_3_LLC_total_miss 2024222
Core_3_LLC_loads 672104
Core_3_LLC_load_hit 275190
Core_3_LLC_load_miss 396914
Core_3_LLC_RFOs 147449
Core_3_LLC_RFO_hit 37512
Core_3_LLC_RFO_miss 109937
Core_3_LLC_prefetches 2067453
Core_3_LLC_prefetch_hit 731587
Core_3_LLC_prefetch_miss 1335866
Core_3_LLC_writebacks 395866
Core_3_LLC_writeback_hit 214361
Core_3_LLC_writeback_miss 181505
Core_3_LLC_prefetch_requested 0
Core_3_LLC_prefetch_dropped 0
Core_3_LLC_prefetch_issued 0
Core_3_LLC_prefetch_filled 7173492
Core_3_LLC_prefetch_useful 131396
Core_3_LLC_prefetch_useless 6975749
Core_3_LLC_prefetch_late 0
Core_3_LLC_average_miss_latency 793.67720

Core_3_LLC_rq_access 3466044
Core_3_LLC_rq_forward 0
Core_3_LLC_rq_merged 0
Core_3_LLC_rq_to_cache 3466016
Core_3_LLC_rq_full 0

Core_3_LLC_wq_access 1594963
Core_3_LLC_wq_forward 41
Core_3_LLC_wq_merged 0
Core_3_LLC_wq_to_cache 1594963
Core_3_LLC_wq_full 0

Core_3_LLC_pq_access 11685019
Core_3_LLC_pq_forward 0
Core_3_LLC_pq_merged 0
Core_3_LLC_pq_to_cache 11685005
Core_3_LLC_pq_full 0

Core_3_LLC_acc_epochs 468195
Core_3_LLC_acc_level_0 445224
Core_3_LLC_acc_level_1 16145
Core_3_LLC_acc_level_2 3911
Core_3_LLC_acc_level_3 1043
Core_3_LLC_acc_level_4 303
Core_3_LLC_acc_level_5 996
Core_3_LLC_acc_level_6 150
Core_3_LLC_acc_level_7 89
Core_3_LLC_acc_level_8 60
Core_3_LLC_acc_level_9 274

Core_3_major_page_fault 0
Core_3_minor_page_fault 47375

Channel_0_RQ_row_buffer_hit 353133
Channel_0_RQ_row_buffer_miss 3393980
Channel_0_WQ_row_buffer_hit 116848
Channel_0_WQ_row_buffer_miss 530802
Channel_0_WQ_full 0
Channel_0_dbus_congested 1504081

Channel_1_RQ_row_buffer_hit 356012
Channel_1_RQ_row_buffer_miss 3415681
Channel_1_WQ_row_buffer_hit 117847
Channel_1_WQ_row_buffer_miss 532368
Channel_1_WQ_full 0
Channel_1_dbus_congested 1513373

avg_congested_cycle 9

DRAM_bw_pochs 1872780
DRAM_bw_level_0 1277213
DRAM_bw_level_1 509770
DRAM_bw_level_2 64826
DRAM_bw_level_3 20971
