*************************************************
   ChampSim Multicore Out-of-Order Simulator
   Last compiled: Mar 31 2025 20:14:32
*************************************************
parsing config file: /data3/config/spp_dev2.ini

trace_0 /data3/CASSANDRA/traces/cassandra_phase5_core0.trace.xz
trace_1 /data3/CASSANDRA/traces/cassandra_phase5_core1.trace.xz
trace_2 /data3/CASSANDRA/traces/cassandra_phase5_core2.trace.xz
trace_3 /data3/CASSANDRA/traces/cassandra_phase5_core3.trace.xz
adding L2C_PREFETCHER: SPP_dev2
Initialize SIGNATURE TABLE
ST_SET: 1
ST_WAY: 256
ST_TAG_BIT: 16
ST_TAG_MASK: ffff

Initialize PATTERN TABLE
PT_SET: 512
PT_WAY: 4
SIG_DELTA_BIT: 7
C_SIG_BIT: 4
C_DELTA_BIT: 4

Initialize PREFETCH FILTER
FILTER_SET: 1024
fill_threshold: 90
pf_threshold: 40

adding L2C_PREFETCHER: SPP_dev2
Initialize SIGNATURE TABLE
ST_SET: 1
ST_WAY: 256
ST_TAG_BIT: 16
ST_TAG_MASK: ffff

Initialize PATTERN TABLE
PT_SET: 512
PT_WAY: 4
SIG_DELTA_BIT: 7
C_SIG_BIT: 4
C_DELTA_BIT: 4

Initialize PREFETCH FILTER
FILTER_SET: 1024
fill_threshold: 90
pf_threshold: 40

adding L2C_PREFETCHER: SPP_dev2
Initialize SIGNATURE TABLE
ST_SET: 1
ST_WAY: 256
ST_TAG_BIT: 16
ST_TAG_MASK: ffff

Initialize PATTERN TABLE
PT_SET: 512
PT_WAY: 4
SIG_DELTA_BIT: 7
C_SIG_BIT: 4
C_DELTA_BIT: 4

Initialize PREFETCH FILTER
FILTER_SET: 1024
fill_threshold: 90
pf_threshold: 40

adding L2C_PREFETCHER: SPP_dev2
Initialize SIGNATURE TABLE
ST_SET: 1
ST_WAY: 256
ST_TAG_BIT: 16
ST_TAG_MASK: ffff

Initialize PATTERN TABLE
PT_SET: 512
PT_WAY: 4
SIG_DELTA_BIT: 7
C_SIG_BIT: 4
C_DELTA_BIT: 4

Initialize PREFETCH FILTER
FILTER_SET: 1024
fill_threshold: 90
pf_threshold: 40

Initialize SHIP state
warmup_instructions 50000000
simulation_instructions 150000000
champsim_seed 8762
measure_ipc 0
measure_ipc_epoch 1000
measure_dram_bw 1
measure_dram_bw_epoch 256
measure_cache_acc 1
measure_cache_acc_epoch 1024
l1d_perfect 0
l2c_perfect 0
llc_perfect 0
l1d_semi_perfect 0
l2c_semi_perfect 0
llc_semi_perfect 0
semi_perfect_cache_page_buffer_size 64

num_cpus 4
cpu_freq 4000
dram_io_freq 2400
page_size 4096
block_size 64
max_read_per_cycle 8
max_fill_per_cycle 1
dram_channels 2
log2_dram_channels 1
dram_ranks 1
dram_banks 8
dram_rows 65536
dram_columns 128
dram_row_size 8
dram_size 8192
dram_pages 2097152

fetch_width 6
decode_width 6
exec_width 4
lq_width 2
sq_width 2
retire_width 4
scheduler_size 128
branch_mispredict_penalty 20
rob_size 256
lq_size 72
sq_size 56
num_instr_destinations_sparc 4
num_instr_destinations 2
num_instr_sources 4

itlb_set 16
itlb_way 8
itlb_rq_size 16
itlb_wq_size 16
itlb_pq_size 0
itlb_mshr_size 8
itlb_latency 1

dtlb_set 16
dtlb_way 4
dtlb_rq_size 16
dtlb_wq_size 16
dtlb_pq_size 0
dtlb_mshr_size 8
dtlb_latency 1

stlb_set 128
stlb_way 12
stlb_rq_size 32
stlb_wq_size 32
stlb_pq_size 0
stlb_mshr_size 16
stlb_latency 8

l1i_size 32
l1i_set 64
l1i_way 8
l1i_rq_size 64
l1i_wq_size 64
l1i_pq_size 8
l1i_mshr_size 8
l1i_latency 1

l1d_size 32
l1d_set 64
l1d_way 8
l1d_rq_size 64
l1d_wq_size 64
l1d_pq_size 8
l1d_mshr_size 16
l1d_latency 4

l2c_size 256
l2c_set 512
l2c_way 8
l2c_rq_size 32
l2c_wq_size 32
l2c_pq_size 32
l2c_mshr_size 32
l2c_latency 10

llc_size 8192
llc_set 8192
llc_way 16
llc_rq_size 128
llc_wq_size 128
llc_pq_size 128
llc_mshr_size 256
llc_latency 20

dram_channel_width 8
dram_wq_size 64
dram_rq_size 64
tRP 15
tRCD 15
tCAS 12.5
dram_dbus_turn_around_time 30
dram_write_high_wm 56
dram_write_low_wm 48
min_dram_writes_per_switch 16
dram_mtps 2400
dram_dbus_return_time 13


Heartbeat CPU  1 instructions:    1000001 cycles:     371721 heartbeat IPC: 2.69019 cumulative IPC: 2.69019 (Simulation time: 0 hr 0 min 5 sec) 
Heartbeat CPU  3 instructions:    1000002 cycles:     394619 heartbeat IPC: 2.53409 cumulative IPC: 2.53409 (Simulation time: 0 hr 0 min 6 sec) 
Heartbeat CPU  2 instructions:    1000000 cycles:     466551 heartbeat IPC: 2.14339 cumulative IPC: 2.14339 (Simulation time: 0 hr 0 min 6 sec) 
Heartbeat CPU  0 instructions:    1000003 cycles:     522028 heartbeat IPC: 1.91561 cumulative IPC: 1.91561 (Simulation time: 0 hr 0 min 7 sec) 
Heartbeat CPU  1 instructions:    2000003 cycles:     683255 heartbeat IPC: 3.20993 cumulative IPC: 2.92717 (Simulation time: 0 hr 0 min 10 sec) 
Heartbeat CPU  3 instructions:    2000003 cycles:     724019 heartbeat IPC: 3.03583 cumulative IPC: 2.76236 (Simulation time: 0 hr 0 min 11 sec) 
Heartbeat CPU  0 instructions:    2000000 cycles:     873841 heartbeat IPC: 2.84241 cumulative IPC: 2.28875 (Simulation time: 0 hr 0 min 13 sec) 
Heartbeat CPU  2 instructions:    2000001 cycles:     939008 heartbeat IPC: 2.11660 cumulative IPC: 2.12991 (Simulation time: 0 hr 0 min 14 sec) 
Heartbeat CPU  1 instructions:    3000000 cycles:    1034841 heartbeat IPC: 2.84425 cumulative IPC: 2.89900 (Simulation time: 0 hr 0 min 16 sec) 
Heartbeat CPU  3 instructions:    3000003 cycles:    1092792 heartbeat IPC: 2.71170 cumulative IPC: 2.74526 (Simulation time: 0 hr 0 min 17 sec) 
Heartbeat CPU  0 instructions:    3000001 cycles:    1199501 heartbeat IPC: 3.07069 cumulative IPC: 2.50104 (Simulation time: 0 hr 0 min 18 sec) 
Heartbeat CPU  1 instructions:    4000000 cycles:    1360415 heartbeat IPC: 3.07150 cumulative IPC: 2.94028 (Simulation time: 0 hr 0 min 21 sec) 
Heartbeat CPU  2 instructions:    3000002 cycles:    1377088 heartbeat IPC: 2.28269 cumulative IPC: 2.17851 (Simulation time: 0 hr 0 min 21 sec) 
Heartbeat CPU  3 instructions:    4000000 cycles:    1423081 heartbeat IPC: 3.02764 cumulative IPC: 2.81080 (Simulation time: 0 hr 0 min 22 sec) 
Heartbeat CPU  0 instructions:    4000000 cycles:    1528393 heartbeat IPC: 3.04051 cumulative IPC: 2.61713 (Simulation time: 0 hr 0 min 24 sec) 
Heartbeat CPU  1 instructions:    5000003 cycles:    1685788 heartbeat IPC: 3.07341 cumulative IPC: 2.96597 (Simulation time: 0 hr 0 min 27 sec) 
Heartbeat CPU  2 instructions:    4000000 cycles:    1704814 heartbeat IPC: 3.05132 cumulative IPC: 2.34630 (Simulation time: 0 hr 0 min 27 sec) 
Heartbeat CPU  0 instructions:    5000003 cycles:    1900726 heartbeat IPC: 2.68578 cumulative IPC: 2.63058 (Simulation time: 0 hr 0 min 30 sec) 
Heartbeat CPU  3 instructions:    5000001 cycles:    1932240 heartbeat IPC: 1.96403 cumulative IPC: 2.58767 (Simulation time: 0 hr 0 min 30 sec) 
Heartbeat CPU  1 instructions:    6000003 cycles:    2022183 heartbeat IPC: 2.97270 cumulative IPC: 2.96709 (Simulation time: 0 hr 0 min 32 sec) 
Heartbeat CPU  2 instructions:    5000003 cycles:    2089848 heartbeat IPC: 2.59718 cumulative IPC: 2.39252 (Simulation time: 0 hr 0 min 33 sec) 
Heartbeat CPU  0 instructions:    6000001 cycles:    2229625 heartbeat IPC: 3.04044 cumulative IPC: 2.69104 (Simulation time: 0 hr 0 min 35 sec) 
Heartbeat CPU  3 instructions:    6000003 cycles:    2255990 heartbeat IPC: 3.08881 cumulative IPC: 2.65959 (Simulation time: 0 hr 0 min 35 sec) 
Heartbeat CPU  2 instructions:    6000002 cycles:    2461484 heartbeat IPC: 2.69080 cumulative IPC: 2.43755 (Simulation time: 0 hr 0 min 38 sec) 
Heartbeat CPU  1 instructions:    7000003 cycles:    2541642 heartbeat IPC: 1.92508 cumulative IPC: 2.75413 (Simulation time: 0 hr 0 min 40 sec) 
Heartbeat CPU  3 instructions:    7000001 cycles:    2640141 heartbeat IPC: 2.60314 cumulative IPC: 2.65137 (Simulation time: 0 hr 0 min 41 sec) 
Heartbeat CPU  0 instructions:    7000002 cycles:    2674255 heartbeat IPC: 2.24906 cumulative IPC: 2.61755 (Simulation time: 0 hr 0 min 42 sec) 
Heartbeat CPU  2 instructions:    7000000 cycles:    2814620 heartbeat IPC: 2.83176 cumulative IPC: 2.48701 (Simulation time: 0 hr 0 min 44 sec) 
Heartbeat CPU  3 instructions:    8000000 cycles:    2975154 heartbeat IPC: 2.98496 cumulative IPC: 2.68894 (Simulation time: 0 hr 0 min 46 sec) 
Heartbeat CPU  1 instructions:    8000000 cycles:    2985530 heartbeat IPC: 2.25281 cumulative IPC: 2.67959 (Simulation time: 0 hr 0 min 47 sec) 
Heartbeat CPU  0 instructions:    8000000 cycles:    3005281 heartbeat IPC: 3.02090 cumulative IPC: 2.66198 (Simulation time: 0 hr 0 min 47 sec) 
Heartbeat CPU  2 instructions:    8000000 cycles:    3143218 heartbeat IPC: 3.04323 cumulative IPC: 2.54516 (Simulation time: 0 hr 0 min 48 sec) 
Heartbeat CPU  3 instructions:    9000002 cycles:    3303814 heartbeat IPC: 3.04266 cumulative IPC: 2.72412 (Simulation time: 0 hr 0 min 51 sec) 
Heartbeat CPU  0 instructions:    9000001 cycles:    3439773 heartbeat IPC: 2.30154 cumulative IPC: 2.61645 (Simulation time: 0 hr 0 min 53 sec) 
Heartbeat CPU  1 instructions:    9000000 cycles:    3460467 heartbeat IPC: 2.10554 cumulative IPC: 2.60081 (Simulation time: 0 hr 0 min 54 sec) 
Heartbeat CPU  2 instructions:    9000003 cycles:    3513708 heartbeat IPC: 2.69914 cumulative IPC: 2.56140 (Simulation time: 0 hr 0 min 54 sec) 
Heartbeat CPU  3 instructions:   10000001 cycles:    3670450 heartbeat IPC: 2.72750 cumulative IPC: 2.72446 (Simulation time: 0 hr 0 min 57 sec) 
Heartbeat CPU  0 instructions:   10000003 cycles:    3762908 heartbeat IPC: 3.09469 cumulative IPC: 2.65752 (Simulation time: 0 hr 0 min 58 sec) 
Heartbeat CPU  2 instructions:   10000002 cycles:    3900518 heartbeat IPC: 2.58525 cumulative IPC: 2.56376 (Simulation time: 0 hr 1 min 0 sec) 
Heartbeat CPU  1 instructions:   10000001 cycles:    3939660 heartbeat IPC: 2.08684 cumulative IPC: 2.53829 (Simulation time: 0 hr 1 min 1 sec) 
Heartbeat CPU  3 instructions:   11000001 cycles:    4084809 heartbeat IPC: 2.41337 cumulative IPC: 2.69290 (Simulation time: 0 hr 1 min 3 sec) 
Heartbeat CPU  0 instructions:   11000000 cycles:    4200867 heartbeat IPC: 2.28331 cumulative IPC: 2.61851 (Simulation time: 0 hr 1 min 4 sec) 
Heartbeat CPU  2 instructions:   11000001 cycles:    4247483 heartbeat IPC: 2.88213 cumulative IPC: 2.58977 (Simulation time: 0 hr 1 min 5 sec) 
Heartbeat CPU  1 instructions:   11000002 cycles:    4474397 heartbeat IPC: 1.87008 cumulative IPC: 2.45843 (Simulation time: 0 hr 1 min 8 sec) 
Heartbeat CPU  3 instructions:   12000000 cycles:    4550321 heartbeat IPC: 2.14817 cumulative IPC: 2.63718 (Simulation time: 0 hr 1 min 9 sec) 
Heartbeat CPU  2 instructions:   12000000 cycles:    4588106 heartbeat IPC: 2.93579 cumulative IPC: 2.61546 (Simulation time: 0 hr 1 min 10 sec) 
Heartbeat CPU  0 instructions:   12000000 cycles:    4625748 heartbeat IPC: 2.35360 cumulative IPC: 2.59418 (Simulation time: 0 hr 1 min 11 sec) 
Heartbeat CPU  1 instructions:   12000000 cycles:    4780085 heartbeat IPC: 3.27130 cumulative IPC: 2.51042 (Simulation time: 0 hr 1 min 14 sec) 
Heartbeat CPU  3 instructions:   13000000 cycles:    4881205 heartbeat IPC: 3.02221 cumulative IPC: 2.66328 (Simulation time: 0 hr 1 min 15 sec) 
Heartbeat CPU  2 instructions:   13000002 cycles:    4910683 heartbeat IPC: 3.10004 cumulative IPC: 2.64729 (Simulation time: 0 hr 1 min 16 sec) 
Heartbeat CPU  0 instructions:   13000000 cycles:    4958037 heartbeat IPC: 3.00943 cumulative IPC: 2.62201 (Simulation time: 0 hr 1 min 17 sec) 
Heartbeat CPU  1 instructions:   13000001 cycles:    5104572 heartbeat IPC: 3.08179 cumulative IPC: 2.54674 (Simulation time: 0 hr 1 min 19 sec) 
Heartbeat CPU  3 instructions:   14000002 cycles:    5258176 heartbeat IPC: 2.65273 cumulative IPC: 2.66252 (Simulation time: 0 hr 1 min 21 sec) 
Heartbeat CPU  0 instructions:   14000003 cycles:    5294943 heartbeat IPC: 2.96820 cumulative IPC: 2.64403 (Simulation time: 0 hr 1 min 22 sec) 
Heartbeat CPU  2 instructions:   14000002 cycles:    5464117 heartbeat IPC: 1.80690 cumulative IPC: 2.56217 (Simulation time: 0 hr 1 min 24 sec) 
Heartbeat CPU  1 instructions:   14000000 cycles:    5576597 heartbeat IPC: 2.11853 cumulative IPC: 2.51049 (Simulation time: 0 hr 1 min 26 sec) 
Heartbeat CPU  3 instructions:   15000001 cycles:    5579886 heartbeat IPC: 3.10839 cumulative IPC: 2.68823 (Simulation time: 0 hr 1 min 26 sec) 
Heartbeat CPU  0 instructions:   15000003 cycles:    5619965 heartbeat IPC: 3.07671 cumulative IPC: 2.66906 (Simulation time: 0 hr 1 min 27 sec) 
Heartbeat CPU  2 instructions:   15000002 cycles:    5807311 heartbeat IPC: 2.91380 cumulative IPC: 2.58295 (Simulation time: 0 hr 1 min 30 sec) 
Heartbeat CPU  3 instructions:   16000000 cycles:    5964210 heartbeat IPC: 2.60197 cumulative IPC: 2.68267 (Simulation time: 0 hr 1 min 32 sec) 
Heartbeat CPU  0 instructions:   16000000 cycles:    5983735 heartbeat IPC: 2.74898 cumulative IPC: 2.67392 (Simulation time: 0 hr 1 min 32 sec) 
Heartbeat CPU  1 instructions:   15000000 cycles:    6028655 heartbeat IPC: 2.21211 cumulative IPC: 2.48812 (Simulation time: 0 hr 1 min 33 sec) 
Heartbeat CPU  2 instructions:   16000000 cycles:    6128475 heartbeat IPC: 3.11367 cumulative IPC: 2.61076 (Simulation time: 0 hr 1 min 35 sec) 
Heartbeat CPU  3 instructions:   17000002 cycles:    6288566 heartbeat IPC: 3.08304 cumulative IPC: 2.70332 (Simulation time: 0 hr 1 min 38 sec) 
Heartbeat CPU  0 instructions:   17000002 cycles:    6314296 heartbeat IPC: 3.02517 cumulative IPC: 2.69230 (Simulation time: 0 hr 1 min 38 sec) 
Heartbeat CPU  1 instructions:   16000000 cycles:    6362665 heartbeat IPC: 2.99392 cumulative IPC: 2.51467 (Simulation time: 0 hr 1 min 39 sec) 
Heartbeat CPU  2 instructions:   17000000 cycles:    6522785 heartbeat IPC: 2.53608 cumulative IPC: 2.60625 (Simulation time: 0 hr 1 min 41 sec) 
Heartbeat CPU  0 instructions:   18000000 cycles:    6668261 heartbeat IPC: 2.82513 cumulative IPC: 2.69935 (Simulation time: 0 hr 1 min 44 sec) 
Heartbeat CPU  3 instructions:   18000003 cycles:    6682094 heartbeat IPC: 2.54112 cumulative IPC: 2.69377 (Simulation time: 0 hr 1 min 44 sec) 
Heartbeat CPU  1 instructions:   17000001 cycles:    6710128 heartbeat IPC: 2.87801 cumulative IPC: 2.53348 (Simulation time: 0 hr 1 min 44 sec) 
Heartbeat CPU  0 instructions:   19000000 cycles:    6992003 heartbeat IPC: 3.08888 cumulative IPC: 2.71739 (Simulation time: 0 hr 1 min 49 sec) 
Heartbeat CPU  3 instructions:   19000001 cycles:    7049257 heartbeat IPC: 2.72358 cumulative IPC: 2.69532 (Simulation time: 0 hr 1 min 49 sec) 
Heartbeat CPU  2 instructions:   18000000 cycles:    7067577 heartbeat IPC: 1.83556 cumulative IPC: 2.54684 (Simulation time: 0 hr 1 min 50 sec) 
Heartbeat CPU  1 instructions:   18000002 cycles:    7080167 heartbeat IPC: 2.70242 cumulative IPC: 2.54231 (Simulation time: 0 hr 1 min 50 sec) 
Heartbeat CPU  0 instructions:   20000000 cycles:    7343875 heartbeat IPC: 2.84194 cumulative IPC: 2.72336 (Simulation time: 0 hr 1 min 54 sec) 
Heartbeat CPU  3 instructions:   20000000 cycles:    7373512 heartbeat IPC: 3.08399 cumulative IPC: 2.71241 (Simulation time: 0 hr 1 min 55 sec) 
Heartbeat CPU  1 instructions:   19000002 cycles:    7507642 heartbeat IPC: 2.33932 cumulative IPC: 2.53076 (Simulation time: 0 hr 1 min 57 sec) 
Heartbeat CPU  2 instructions:   19000001 cycles:    7508339 heartbeat IPC: 2.26880 cumulative IPC: 2.53052 (Simulation time: 0 hr 1 min 57 sec) 
Heartbeat CPU  0 instructions:   21000001 cycles:    7655373 heartbeat IPC: 3.21030 cumulative IPC: 2.74317 (Simulation time: 0 hr 1 min 59 sec) 
Heartbeat CPU  1 instructions:   20000000 cycles:    7852208 heartbeat IPC: 2.90220 cumulative IPC: 2.54705 (Simulation time: 0 hr 2 min 2 sec) 
Heartbeat CPU  3 instructions:   21000002 cycles:    7864665 heartbeat IPC: 2.03603 cumulative IPC: 2.67017 (Simulation time: 0 hr 2 min 2 sec) 
Heartbeat CPU  2 instructions:   20000000 cycles:    7937604 heartbeat IPC: 2.32956 cumulative IPC: 2.51965 (Simulation time: 0 hr 2 min 3 sec) 
Heartbeat CPU  0 instructions:   22000002 cycles:    8069344 heartbeat IPC: 2.41563 cumulative IPC: 2.72637 (Simulation time: 0 hr 2 min 5 sec) 
Heartbeat CPU  3 instructions:   22000000 cycles:    8191235 heartbeat IPC: 3.06212 cumulative IPC: 2.68580 (Simulation time: 0 hr 2 min 7 sec) 
Heartbeat CPU  2 instructions:   21000002 cycles:    8265516 heartbeat IPC: 3.04960 cumulative IPC: 2.54068 (Simulation time: 0 hr 2 min 8 sec) 
Heartbeat CPU  1 instructions:   21000000 cycles:    8340266 heartbeat IPC: 2.04894 cumulative IPC: 2.51791 (Simulation time: 0 hr 2 min 9 sec) 
Heartbeat CPU  0 instructions:   23000001 cycles:    8489334 heartbeat IPC: 2.38101 cumulative IPC: 2.70928 (Simulation time: 0 hr 2 min 12 sec) 
Heartbeat CPU  2 instructions:   22000003 cycles:    8589984 heartbeat IPC: 3.08197 cumulative IPC: 2.56112 (Simulation time: 0 hr 2 min 14 sec) 
Heartbeat CPU  3 instructions:   23000001 cycles:    8622117 heartbeat IPC: 2.32082 cumulative IPC: 2.66756 (Simulation time: 0 hr 2 min 14 sec) 
Heartbeat CPU  1 instructions:   22000002 cycles:    8667406 heartbeat IPC: 3.05680 cumulative IPC: 2.53825 (Simulation time: 0 hr 2 min 15 sec) 
Heartbeat CPU  0 instructions:   24000000 cycles:    8814341 heartbeat IPC: 3.07685 cumulative IPC: 2.72284 (Simulation time: 0 hr 2 min 17 sec) 
Heartbeat CPU  2 instructions:   23000000 cycles:    8916570 heartbeat IPC: 3.06197 cumulative IPC: 2.57947 (Simulation time: 0 hr 2 min 19 sec) 
Heartbeat CPU  1 instructions:   23000001 cycles:    8988642 heartbeat IPC: 3.11297 cumulative IPC: 2.55878 (Simulation time: 0 hr 2 min 20 sec) 
Heartbeat CPU  0 instructions:   25000003 cycles:    9151035 heartbeat IPC: 2.97006 cumulative IPC: 2.73193 (Simulation time: 0 hr 2 min 22 sec) 
Heartbeat CPU  3 instructions:   24000000 cycles:    9330991 heartbeat IPC: 1.41069 cumulative IPC: 2.57207 (Simulation time: 0 hr 2 min 24 sec) 
Heartbeat CPU  2 instructions:   24000000 cycles:    9339514 heartbeat IPC: 2.36438 cumulative IPC: 2.56973 (Simulation time: 0 hr 2 min 24 sec) 
Heartbeat CPU  1 instructions:   24000000 cycles:    9384790 heartbeat IPC: 2.52431 cumulative IPC: 2.55733 (Simulation time: 0 hr 2 min 25 sec) 
Heartbeat CPU  0 instructions:   26000000 cycles:    9596356 heartbeat IPC: 2.24556 cumulative IPC: 2.70936 (Simulation time: 0 hr 2 min 28 sec) 
Heartbeat CPU  2 instructions:   25000001 cycles:    9660844 heartbeat IPC: 3.11207 cumulative IPC: 2.58777 (Simulation time: 0 hr 2 min 29 sec) 
Heartbeat CPU  1 instructions:   25000000 cycles:    9714636 heartbeat IPC: 3.03172 cumulative IPC: 2.57344 (Simulation time: 0 hr 2 min 30 sec) 
Heartbeat CPU  3 instructions:   25000000 cycles:    9804257 heartbeat IPC: 2.11298 cumulative IPC: 2.54991 (Simulation time: 0 hr 2 min 32 sec) 
Heartbeat CPU  0 instructions:   27000001 cycles:    9957268 heartbeat IPC: 2.77076 cumulative IPC: 2.71159 (Simulation time: 0 hr 2 min 34 sec) 
Heartbeat CPU  2 instructions:   26000002 cycles:    9982843 heartbeat IPC: 3.10560 cumulative IPC: 2.60447 (Simulation time: 0 hr 2 min 35 sec) 
Heartbeat CPU  1 instructions:   26000000 cycles:   10074759 heartbeat IPC: 2.77683 cumulative IPC: 2.58071 (Simulation time: 0 hr 2 min 36 sec) 
Heartbeat CPU  3 instructions:   26000002 cycles:   10289546 heartbeat IPC: 2.06063 cumulative IPC: 2.52684 (Simulation time: 0 hr 2 min 39 sec) 
Heartbeat CPU  0 instructions:   28000000 cycles:   10307802 heartbeat IPC: 2.85279 cumulative IPC: 2.71639 (Simulation time: 0 hr 2 min 40 sec) 
Heartbeat CPU  2 instructions:   27000000 cycles:   10312262 heartbeat IPC: 3.03564 cumulative IPC: 2.61824 (Simulation time: 0 hr 2 min 40 sec) 
Heartbeat CPU  1 instructions:   27000001 cycles:   10508782 heartbeat IPC: 2.30403 cumulative IPC: 2.56928 (Simulation time: 0 hr 2 min 43 sec) 
Heartbeat CPU  0 instructions:   29000000 cycles:   10630998 heartbeat IPC: 3.09410 cumulative IPC: 2.72787 (Simulation time: 0 hr 2 min 45 sec) 
Heartbeat CPU  2 instructions:   28000000 cycles:   10665620 heartbeat IPC: 2.82999 cumulative IPC: 2.62526 (Simulation time: 0 hr 2 min 46 sec) 
Heartbeat CPU  3 instructions:   27000002 cycles:   10683860 heartbeat IPC: 2.53605 cumulative IPC: 2.52718 (Simulation time: 0 hr 2 min 46 sec) 
Heartbeat CPU  1 instructions:   28000000 cycles:   10925616 heartbeat IPC: 2.39903 cumulative IPC: 2.56278 (Simulation time: 0 hr 2 min 49 sec) 
Heartbeat CPU  2 instructions:   29000000 cycles:   10988398 heartbeat IPC: 3.09810 cumulative IPC: 2.63915 (Simulation time: 0 hr 2 min 50 sec) 
Heartbeat CPU  0 instructions:   30000003 cycles:   11109760 heartbeat IPC: 2.08873 cumulative IPC: 2.70033 (Simulation time: 0 hr 2 min 52 sec) 
Heartbeat CPU  3 instructions:   28000000 cycles:   11151192 heartbeat IPC: 2.13980 cumulative IPC: 2.51094 (Simulation time: 0 hr 2 min 53 sec) 
Heartbeat CPU  1 instructions:   29000000 cycles:   11298601 heartbeat IPC: 2.68107 cumulative IPC: 2.56669 (Simulation time: 0 hr 2 min 55 sec) 
Heartbeat CPU  2 instructions:   30000000 cycles:   11309367 heartbeat IPC: 3.11557 cumulative IPC: 2.65267 (Simulation time: 0 hr 2 min 55 sec) 
Heartbeat CPU  0 instructions:   31000003 cycles:   11427138 heartbeat IPC: 3.15082 cumulative IPC: 2.71284 (Simulation time: 0 hr 2 min 57 sec) 
Heartbeat CPU  3 instructions:   29000000 cycles:   11486690 heartbeat IPC: 2.98064 cumulative IPC: 2.52466 (Simulation time: 0 hr 2 min 59 sec) 
Heartbeat CPU  1 instructions:   30000000 cycles:   11625521 heartbeat IPC: 3.05885 cumulative IPC: 2.58053 (Simulation time: 0 hr 3 min 1 sec) 
Heartbeat CPU  2 instructions:   31000000 cycles:   11632504 heartbeat IPC: 3.09466 cumulative IPC: 2.66495 (Simulation time: 0 hr 3 min 1 sec) 
Heartbeat CPU  0 instructions:   32000000 cycles:   11750550 heartbeat IPC: 3.09202 cumulative IPC: 2.72328 (Simulation time: 0 hr 3 min 3 sec) 
Heartbeat CPU  3 instructions:   30000000 cycles:   11817795 heartbeat IPC: 3.02019 cumulative IPC: 2.53854 (Simulation time: 0 hr 3 min 4 sec) 
Heartbeat CPU  1 instructions:   31000003 cycles:   11940336 heartbeat IPC: 3.17648 cumulative IPC: 2.59624 (Simulation time: 0 hr 3 min 6 sec) 
Heartbeat CPU  3 instructions:   31000002 cycles:   12146949 heartbeat IPC: 3.03810 cumulative IPC: 2.55208 (Simulation time: 0 hr 3 min 9 sec) 
Heartbeat CPU  2 instructions:   32000000 cycles:   12149054 heartbeat IPC: 1.93592 cumulative IPC: 2.63395 (Simulation time: 0 hr 3 min 9 sec) 
Heartbeat CPU  0 instructions:   33000003 cycles:   12171677 heartbeat IPC: 2.37459 cumulative IPC: 2.71121 (Simulation time: 0 hr 3 min 10 sec) 
Heartbeat CPU  1 instructions:   32000000 cycles:   12264766 heartbeat IPC: 3.08232 cumulative IPC: 2.60910 (Simulation time: 0 hr 3 min 11 sec) 
Heartbeat CPU  2 instructions:   33000000 cycles:   12538007 heartbeat IPC: 2.57100 cumulative IPC: 2.63200 (Simulation time: 0 hr 3 min 15 sec) 
Heartbeat CPU  3 instructions:   32000000 cycles:   12543825 heartbeat IPC: 2.51967 cumulative IPC: 2.55106 (Simulation time: 0 hr 3 min 16 sec) 
Heartbeat CPU  0 instructions:   34000003 cycles:   12553984 heartbeat IPC: 2.61570 cumulative IPC: 2.70830 (Simulation time: 0 hr 3 min 16 sec) 
Heartbeat CPU  1 instructions:   33000000 cycles:   12601072 heartbeat IPC: 2.97348 cumulative IPC: 2.61882 (Simulation time: 0 hr 3 min 17 sec) 
Heartbeat CPU  3 instructions:   33000002 cycles:   12899751 heartbeat IPC: 2.80958 cumulative IPC: 2.55819 (Simulation time: 0 hr 3 min 21 sec) 
Heartbeat CPU  0 instructions:   35000000 cycles:   12909059 heartbeat IPC: 2.81630 cumulative IPC: 2.71127 (Simulation time: 0 hr 3 min 21 sec) 
Heartbeat CPU  2 instructions:   34000000 cycles:   12937077 heartbeat IPC: 2.50583 cumulative IPC: 2.62811 (Simulation time: 0 hr 3 min 22 sec) 
Heartbeat CPU  1 instructions:   34000000 cycles:   13047779 heartbeat IPC: 2.23860 cumulative IPC: 2.60581 (Simulation time: 0 hr 3 min 23 sec) 
Heartbeat CPU  3 instructions:   34000003 cycles:   13284002 heartbeat IPC: 2.60247 cumulative IPC: 2.55947 (Simulation time: 0 hr 3 min 26 sec) 
Heartbeat CPU  2 instructions:   35000003 cycles:   13294167 heartbeat IPC: 2.80042 cumulative IPC: 2.63273 (Simulation time: 0 hr 3 min 26 sec) 
Heartbeat CPU  0 instructions:   36000000 cycles:   13306832 heartbeat IPC: 2.51400 cumulative IPC: 2.70538 (Simulation time: 0 hr 3 min 27 sec) 
Heartbeat CPU  1 instructions:   35000001 cycles:   13580550 heartbeat IPC: 1.87698 cumulative IPC: 2.57722 (Simulation time: 0 hr 3 min 31 sec) 
Heartbeat CPU  2 instructions:   36000000 cycles:   13666784 heartbeat IPC: 2.68371 cumulative IPC: 2.63412 (Simulation time: 0 hr 3 min 32 sec) 
Heartbeat CPU  3 instructions:   35000000 cycles:   13673160 heartbeat IPC: 2.56964 cumulative IPC: 2.55976 (Simulation time: 0 hr 3 min 32 sec) 
Heartbeat CPU  0 instructions:   37000002 cycles:   13697460 heartbeat IPC: 2.55999 cumulative IPC: 2.70123 (Simulation time: 0 hr 3 min 33 sec) 
Heartbeat CPU  3 instructions:   36000000 cycles:   14007661 heartbeat IPC: 2.98953 cumulative IPC: 2.57002 (Simulation time: 0 hr 3 min 37 sec) 
Heartbeat CPU  1 instructions:   36000000 cycles:   14054915 heartbeat IPC: 2.10808 cumulative IPC: 2.56138 (Simulation time: 0 hr 3 min 37 sec) 
Heartbeat CPU  0 instructions:   38000002 cycles:   14123015 heartbeat IPC: 2.34987 cumulative IPC: 2.69064 (Simulation time: 0 hr 3 min 38 sec) 
Heartbeat CPU  2 instructions:   37000002 cycles:   14148605 heartbeat IPC: 2.07546 cumulative IPC: 2.61510 (Simulation time: 0 hr 3 min 39 sec) 
Heartbeat CPU  3 instructions:   37000000 cycles:   14331410 heartbeat IPC: 3.08881 cumulative IPC: 2.58174 (Simulation time: 0 hr 3 min 41 sec) 
Heartbeat CPU  0 instructions:   39000002 cycles:   14497613 heartbeat IPC: 2.66953 cumulative IPC: 2.69010 (Simulation time: 0 hr 3 min 44 sec) 
Heartbeat CPU  2 instructions:   38000003 cycles:   14567949 heartbeat IPC: 2.38468 cumulative IPC: 2.60847 (Simulation time: 0 hr 3 min 45 sec) 
Heartbeat CPU  3 instructions:   38000000 cycles:   14648418 heartbeat IPC: 3.15449 cumulative IPC: 2.59414 (Simulation time: 0 hr 3 min 46 sec) 
Heartbeat CPU  1 instructions:   37000003 cycles:   14818113 heartbeat IPC: 1.31028 cumulative IPC: 2.49694 (Simulation time: 0 hr 3 min 49 sec) 
Heartbeat CPU  0 instructions:   40000000 cycles:   14822150 heartbeat IPC: 3.08131 cumulative IPC: 2.69866 (Simulation time: 0 hr 3 min 49 sec) 
Heartbeat CPU  2 instructions:   39000003 cycles:   14892911 heartbeat IPC: 3.07728 cumulative IPC: 2.61870 (Simulation time: 0 hr 3 min 50 sec) 
Heartbeat CPU  3 instructions:   39000002 cycles:   14972258 heartbeat IPC: 3.08795 cumulative IPC: 2.60482 (Simulation time: 0 hr 3 min 51 sec) 
Heartbeat CPU  1 instructions:   38000003 cycles:   15141211 heartbeat IPC: 3.09504 cumulative IPC: 2.50971 (Simulation time: 0 hr 3 min 54 sec) 
Heartbeat CPU  0 instructions:   41000001 cycles:   15194512 heartbeat IPC: 2.68556 cumulative IPC: 2.69834 (Simulation time: 0 hr 3 min 55 sec) 
Heartbeat CPU  2 instructions:   40000000 cycles:   15216952 heartbeat IPC: 3.08602 cumulative IPC: 2.62865 (Simulation time: 0 hr 3 min 55 sec) 
Heartbeat CPU  3 instructions:   40000000 cycles:   15296894 heartbeat IPC: 3.08037 cumulative IPC: 2.61491 (Simulation time: 0 hr 3 min 57 sec) 
Heartbeat CPU  1 instructions:   39000003 cycles:   15469240 heartbeat IPC: 3.04851 cumulative IPC: 2.52113 (Simulation time: 0 hr 4 min 0 sec) 
Heartbeat CPU  0 instructions:   42000002 cycles:   15511256 heartbeat IPC: 3.15713 cumulative IPC: 2.70771 (Simulation time: 0 hr 4 min 0 sec) 
Heartbeat CPU  2 instructions:   41000002 cycles:   15636549 heartbeat IPC: 2.38324 cumulative IPC: 2.62206 (Simulation time: 0 hr 4 min 2 sec) 
Heartbeat CPU  3 instructions:   41000003 cycles:   15777456 heartbeat IPC: 2.08090 cumulative IPC: 2.59864 (Simulation time: 0 hr 4 min 4 sec) 
Heartbeat CPU  0 instructions:   43000000 cycles:   15836638 heartbeat IPC: 3.07330 cumulative IPC: 2.71522 (Simulation time: 0 hr 4 min 5 sec) 
Heartbeat CPU  1 instructions:   40000000 cycles:   15868049 heartbeat IPC: 2.50746 cumulative IPC: 2.52079 (Simulation time: 0 hr 4 min 6 sec) 
Heartbeat CPU  2 instructions:   42000000 cycles:   16021027 heartbeat IPC: 2.60092 cumulative IPC: 2.62155 (Simulation time: 0 hr 4 min 8 sec) 
Heartbeat CPU  3 instructions:   42000003 cycles:   16120583 heartbeat IPC: 2.91437 cumulative IPC: 2.60537 (Simulation time: 0 hr 4 min 10 sec) 
Heartbeat CPU  0 instructions:   44000000 cycles:   16160467 heartbeat IPC: 3.08805 cumulative IPC: 2.72269 (Simulation time: 0 hr 4 min 11 sec) 
Heartbeat CPU  1 instructions:   41000003 cycles:   16289210 heartbeat IPC: 2.37440 cumulative IPC: 2.51700 (Simulation time: 0 hr 4 min 13 sec) 
Heartbeat CPU  2 instructions:   43000000 cycles:   16350265 heartbeat IPC: 3.03732 cumulative IPC: 2.62993 (Simulation time: 0 hr 4 min 14 sec) 
Heartbeat CPU  0 instructions:   45000000 cycles:   16485214 heartbeat IPC: 3.07932 cumulative IPC: 2.72972 (Simulation time: 0 hr 4 min 16 sec) 
Heartbeat CPU  3 instructions:   43000000 cycles:   16496150 heartbeat IPC: 2.66263 cumulative IPC: 2.60667 (Simulation time: 0 hr 4 min 16 sec) 
Heartbeat CPU  2 instructions:   44000000 cycles:   16706052 heartbeat IPC: 2.81067 cumulative IPC: 2.63378 (Simulation time: 0 hr 4 min 19 sec) 
Heartbeat CPU  1 instructions:   42000001 cycles:   16734369 heartbeat IPC: 2.24638 cumulative IPC: 2.50980 (Simulation time: 0 hr 4 min 20 sec) 
Heartbeat CPU  0 instructions:   46000001 cycles:   16815372 heartbeat IPC: 3.02886 cumulative IPC: 2.73559 (Simulation time: 0 hr 4 min 21 sec) 
Heartbeat CPU  3 instructions:   44000000 cycles:   16863529 heartbeat IPC: 2.72198 cumulative IPC: 2.60918 (Simulation time: 0 hr 4 min 22 sec) 
Heartbeat CPU  1 instructions:   43000001 cycles:   17086103 heartbeat IPC: 2.84306 cumulative IPC: 2.51667 (Simulation time: 0 hr 4 min 26 sec) 
Heartbeat CPU  2 instructions:   45000000 cycles:   17129042 heartbeat IPC: 2.36412 cumulative IPC: 2.62712 (Simulation time: 0 hr 4 min 26 sec) 
Heartbeat CPU  0 instructions:   47000000 cycles:   17164718 heartbeat IPC: 2.86249 cumulative IPC: 2.73817 (Simulation time: 0 hr 4 min 27 sec) 
Heartbeat CPU  3 instructions:   45000002 cycles:   17188827 heartbeat IPC: 3.07411 cumulative IPC: 2.61798 (Simulation time: 0 hr 4 min 27 sec) 
Heartbeat CPU  1 instructions:   44000000 cycles:   17411263 heartbeat IPC: 3.07541 cumulative IPC: 2.52710 (Simulation time: 0 hr 4 min 31 sec) 
Heartbeat CPU  2 instructions:   46000002 cycles:   17494880 heartbeat IPC: 2.73346 cumulative IPC: 2.62934 (Simulation time: 0 hr 4 min 33 sec) 
Heartbeat CPU  3 instructions:   46000001 cycles:   17508129 heartbeat IPC: 3.13183 cumulative IPC: 2.62735 (Simulation time: 0 hr 4 min 33 sec) 
Heartbeat CPU  0 instructions:   48000000 cycles:   17519332 heartbeat IPC: 2.81997 cumulative IPC: 2.73983 (Simulation time: 0 hr 4 min 33 sec) 
Heartbeat CPU  1 instructions:   45000002 cycles:   17762313 heartbeat IPC: 2.84860 cumulative IPC: 2.53345 (Simulation time: 0 hr 4 min 36 sec) 
Heartbeat CPU  2 instructions:   47000002 cycles:   17940547 heartbeat IPC: 2.24383 cumulative IPC: 2.61976 (Simulation time: 0 hr 4 min 39 sec) 
Heartbeat CPU  0 instructions:   49000000 cycles:   17989126 heartbeat IPC: 2.12859 cumulative IPC: 2.72387 (Simulation time: 0 hr 4 min 39 sec) 
Heartbeat CPU  1 instructions:   46000000 cycles:   18094935 heartbeat IPC: 3.00641 cumulative IPC: 2.54215 (Simulation time: 0 hr 4 min 41 sec) 
Heartbeat CPU  3 instructions:   47000002 cycles:   18098651 heartbeat IPC: 1.69342 cumulative IPC: 2.59688 (Simulation time: 0 hr 4 min 41 sec) 
Heartbeat CPU  0 instructions:   50000003 cycles:   18360027 heartbeat IPC: 2.69615 cumulative IPC: 2.72331 (Simulation time: 0 hr 4 min 44 sec) 
Heartbeat CPU  2 instructions:   48000000 cycles:   18456060 heartbeat IPC: 1.93981 cumulative IPC: 2.60077 (Simulation time: 0 hr 4 min 46 sec) 
Heartbeat CPU  3 instructions:   48000000 cycles:   18510753 heartbeat IPC: 2.42658 cumulative IPC: 2.59309 (Simulation time: 0 hr 4 min 47 sec) 
Heartbeat CPU  1 instructions:   47000001 cycles:   18520961 heartbeat IPC: 2.34728 cumulative IPC: 2.53767 (Simulation time: 0 hr 4 min 47 sec) 
Heartbeat CPU  0 instructions:   51000001 cycles:   18685281 heartbeat IPC: 3.07451 cumulative IPC: 0.05352 (Simulation time: 0 hr 4 min 50 sec) 
Heartbeat CPU  2 instructions:   49000002 cycles:   18773074 heartbeat IPC: 3.15444 cumulative IPC: 2.61012 (Simulation time: 0 hr 4 min 51 sec) 
Heartbeat CPU  1 instructions:   48000000 cycles:   18853388 heartbeat IPC: 3.00818 cumulative IPC: 2.54596 (Simulation time: 0 hr 4 min 53 sec) 
Heartbeat CPU  0 instructions:   52000000 cycles:   19006915 heartbeat IPC: 3.10912 cumulative IPC: 0.10522 (Simulation time: 0 hr 4 min 55 sec) 
Heartbeat CPU  3 instructions:   49000003 cycles:   19024546 heartbeat IPC: 1.94631 cumulative IPC: 2.57562 (Simulation time: 0 hr 4 min 55 sec) 
Heartbeat CPU  2 instructions:   50000002 cycles:   19096251 heartbeat IPC: 3.09428 cumulative IPC: 2.61831 (Simulation time: 0 hr 4 min 57 sec) 
Heartbeat CPU  1 instructions:   49000001 cycles:   19253390 heartbeat IPC: 2.49999 cumulative IPC: 2.54501 (Simulation time: 0 hr 4 min 59 sec) 
Heartbeat CPU  0 instructions:   53000002 cycles:   19331513 heartbeat IPC: 3.08074 cumulative IPC: 0.15519 (Simulation time: 0 hr 5 min 0 sec) 
Heartbeat CPU  2 instructions:   51000002 cycles:   19482179 heartbeat IPC: 2.59116 cumulative IPC: 0.05133 (Simulation time: 0 hr 5 min 3 sec) 
Heartbeat CPU  3 instructions:   50000002 cycles:   19527987 heartbeat IPC: 1.98633 cumulative IPC: 2.56043 (Simulation time: 0 hr 5 min 3 sec) 
Heartbeat CPU  1 instructions:   50000001 cycles:   19589196 heartbeat IPC: 2.97791 cumulative IPC: 2.55243 (Simulation time: 0 hr 5 min 4 sec) 

Warmup complete CPU  0 instructions:   53646853 cycles:   19589195 (Simulation time: 0 hr 5 min 4 sec) 
Warmup complete CPU  1 instructions:   50000001 cycles:   19589196 (Simulation time: 0 hr 5 min 4 sec) 
Warmup complete CPU  2 instructions:   51161972 cycles:   19589196 (Simulation time: 0 hr 5 min 4 sec) 
Warmup complete CPU  3 instructions:   50189057 cycles:   19589195 (Simulation time: 0 hr 5 min 4 sec) 

Heartbeat CPU  0 instructions:   54000001 cycles:   20735761 heartbeat IPC: 0.71212 cumulative IPC: 0.30800 (Simulation time: 0 hr 5 min 7 sec) 
Heartbeat CPU  2 instructions:   52000000 cycles:   21904307 heartbeat IPC: 0.41286 cumulative IPC: 0.36198 (Simulation time: 0 hr 5 min 11 sec) 
Heartbeat CPU  3 instructions:   51000001 cycles:   22046775 heartbeat IPC: 0.39702 cumulative IPC: 0.32998 (Simulation time: 0 hr 5 min 11 sec) 
Heartbeat CPU  1 instructions:   51000000 cycles:   22642451 heartbeat IPC: 0.32752 cumulative IPC: 0.32752 (Simulation time: 0 hr 5 min 13 sec) 
Heartbeat CPU  0 instructions:   55000000 cycles:   23638016 heartbeat IPC: 0.34456 cumulative IPC: 0.33421 (Simulation time: 0 hr 5 min 16 sec) 
Heartbeat CPU  3 instructions:   52000000 cycles:   24242450 heartbeat IPC: 0.45544 cumulative IPC: 0.38918 (Simulation time: 0 hr 5 min 18 sec) 
Heartbeat CPU  2 instructions:   53000002 cycles:   24540973 heartbeat IPC: 0.37927 cumulative IPC: 0.37119 (Simulation time: 0 hr 5 min 19 sec) 
Heartbeat CPU  1 instructions:   52000000 cycles:   25259757 heartbeat IPC: 0.38207 cumulative IPC: 0.35270 (Simulation time: 0 hr 5 min 21 sec) 
Heartbeat CPU  0 instructions:   56000000 cycles:   26702697 heartbeat IPC: 0.32630 cumulative IPC: 0.33080 (Simulation time: 0 hr 5 min 25 sec) 
Heartbeat CPU  3 instructions:   53000003 cycles:   27077138 heartbeat IPC: 0.35277 cumulative IPC: 0.37540 (Simulation time: 0 hr 5 min 26 sec) 
Heartbeat CPU  2 instructions:   54000001 cycles:   27130196 heartbeat IPC: 0.38622 cumulative IPC: 0.37635 (Simulation time: 0 hr 5 min 26 sec) 
Heartbeat CPU  1 instructions:   53000001 cycles:   28119364 heartbeat IPC: 0.34970 cumulative IPC: 0.35169 (Simulation time: 0 hr 5 min 29 sec) 
Heartbeat CPU  0 instructions:   57000002 cycles:   28902803 heartbeat IPC: 0.45452 cumulative IPC: 0.36003 (Simulation time: 0 hr 5 min 31 sec) 
Heartbeat CPU  2 instructions:   55000002 cycles:   29720404 heartbeat IPC: 0.38607 cumulative IPC: 0.37883 (Simulation time: 0 hr 5 min 33 sec) 
Heartbeat CPU  3 instructions:   54000003 cycles:   29775176 heartbeat IPC: 0.37064 cumulative IPC: 0.37414 (Simulation time: 0 hr 5 min 34 sec) 
Heartbeat CPU  1 instructions:   54000002 cycles:   31347670 heartbeat IPC: 0.30976 cumulative IPC: 0.34018 (Simulation time: 0 hr 5 min 38 sec) 
Heartbeat CPU  0 instructions:   58000000 cycles:   31675878 heartbeat IPC: 0.36061 cumulative IPC: 0.36016 (Simulation time: 0 hr 5 min 39 sec) 
Heartbeat CPU  3 instructions:   55000001 cycles:   32434178 heartbeat IPC: 0.37608 cumulative IPC: 0.37454 (Simulation time: 0 hr 5 min 41 sec) 
Heartbeat CPU  2 instructions:   56000000 cycles:   32599182 heartbeat IPC: 0.34737 cumulative IPC: 0.37187 (Simulation time: 0 hr 5 min 42 sec) 
Heartbeat CPU  1 instructions:   55000002 cycles:   33984796 heartbeat IPC: 0.37920 cumulative IPC: 0.34733 (Simulation time: 0 hr 5 min 46 sec) 
Heartbeat CPU  0 instructions:   59000002 cycles:   34377575 heartbeat IPC: 0.37014 cumulative IPC: 0.36198 (Simulation time: 0 hr 5 min 47 sec) 
Heartbeat CPU  3 instructions:   56000000 cycles:   35119213 heartbeat IPC: 0.37243 cumulative IPC: 0.37417 (Simulation time: 0 hr 5 min 50 sec) 
Heartbeat CPU  2 instructions:   57000000 cycles:   36099946 heartbeat IPC: 0.28565 cumulative IPC: 0.35359 (Simulation time: 0 hr 5 min 52 sec) 
Heartbeat CPU  0 instructions:   60000000 cycles:   36402512 heartbeat IPC: 0.49384 cumulative IPC: 0.37786 (Simulation time: 0 hr 5 min 53 sec) 
Heartbeat CPU  1 instructions:   56000000 cycles:   36591243 heartbeat IPC: 0.38366 cumulative IPC: 0.35290 (Simulation time: 0 hr 5 min 54 sec) 
Heartbeat CPU  3 instructions:   57000000 cycles:   37709511 heartbeat IPC: 0.38606 cumulative IPC: 0.37587 (Simulation time: 0 hr 5 min 57 sec) 
Heartbeat CPU  2 instructions:   58000002 cycles:   39081054 heartbeat IPC: 0.33545 cumulative IPC: 0.35081 (Simulation time: 0 hr 6 min 1 sec) 
Heartbeat CPU  0 instructions:   61000001 cycles:   39335066 heartbeat IPC: 0.34100 cumulative IPC: 0.37239 (Simulation time: 0 hr 6 min 2 sec) 
Heartbeat CPU  1 instructions:   57000000 cycles:   39447228 heartbeat IPC: 0.35014 cumulative IPC: 0.35250 (Simulation time: 0 hr 6 min 2 sec) 
Heartbeat CPU  3 instructions:   58000003 cycles:   40230925 heartbeat IPC: 0.39660 cumulative IPC: 0.37841 (Simulation time: 0 hr 6 min 4 sec) 
Heartbeat CPU  2 instructions:   59000001 cycles:   41373030 heartbeat IPC: 0.43630 cumulative IPC: 0.35981 (Simulation time: 0 hr 6 min 8 sec) 
Heartbeat CPU  0 instructions:   62000002 cycles:   41794412 heartbeat IPC: 0.40661 cumulative IPC: 0.37618 (Simulation time: 0 hr 6 min 10 sec) 
Heartbeat CPU  1 instructions:   58000001 cycles:   42322038 heartbeat IPC: 0.34785 cumulative IPC: 0.35191 (Simulation time: 0 hr 6 min 11 sec) 
Heartbeat CPU  3 instructions:   59000000 cycles:   42662092 heartbeat IPC: 0.41132 cumulative IPC: 0.38187 (Simulation time: 0 hr 6 min 12 sec) 
Heartbeat CPU  0 instructions:   63000003 cycles:   44141869 heartbeat IPC: 0.42599 cumulative IPC: 0.38094 (Simulation time: 0 hr 6 min 17 sec) 
Heartbeat CPU  2 instructions:   60000000 cycles:   44298837 heartbeat IPC: 0.34179 cumulative IPC: 0.35768 (Simulation time: 0 hr 6 min 17 sec) 
Heartbeat CPU  1 instructions:   59000000 cycles:   44477507 heartbeat IPC: 0.46394 cumulative IPC: 0.36162 (Simulation time: 0 hr 6 min 18 sec) 
Heartbeat CPU  3 instructions:   60000000 cycles:   45562973 heartbeat IPC: 0.34472 cumulative IPC: 0.37772 (Simulation time: 0 hr 6 min 21 sec) 
Heartbeat CPU  0 instructions:   64000000 cycles:   46748888 heartbeat IPC: 0.38358 cumulative IPC: 0.38120 (Simulation time: 0 hr 6 min 24 sec) 
Heartbeat CPU  1 instructions:   60000000 cycles:   47155468 heartbeat IPC: 0.37342 cumulative IPC: 0.36276 (Simulation time: 0 hr 6 min 25 sec) 
Heartbeat CPU  2 instructions:   61000001 cycles:   47215381 heartbeat IPC: 0.34287 cumulative IPC: 0.35611 (Simulation time: 0 hr 6 min 26 sec) 
Heartbeat CPU  3 instructions:   61000000 cycles:   48163414 heartbeat IPC: 0.38455 cumulative IPC: 0.37835 (Simulation time: 0 hr 6 min 28 sec) 
Heartbeat CPU  1 instructions:   61000000 cycles:   49354284 heartbeat IPC: 0.45479 cumulative IPC: 0.36956 (Simulation time: 0 hr 6 min 32 sec) 
Heartbeat CPU  0 instructions:   65000003 cycles:   49387433 heartbeat IPC: 0.37900 cumulative IPC: 0.38100 (Simulation time: 0 hr 6 min 32 sec) 
Heartbeat CPU  2 instructions:   62000000 cycles:   49922583 heartbeat IPC: 0.36938 cumulative IPC: 0.35730 (Simulation time: 0 hr 6 min 34 sec) 
Heartbeat CPU  3 instructions:   62000001 cycles:   50694896 heartbeat IPC: 0.39503 cumulative IPC: 0.37970 (Simulation time: 0 hr 6 min 36 sec) 
Heartbeat CPU  0 instructions:   66000001 cycles:   51582119 heartbeat IPC: 0.45565 cumulative IPC: 0.38612 (Simulation time: 0 hr 6 min 39 sec) 
Heartbeat CPU  1 instructions:   62000002 cycles:   52530890 heartbeat IPC: 0.31480 cumulative IPC: 0.36428 (Simulation time: 0 hr 6 min 42 sec) 
Heartbeat CPU  2 instructions:   63000002 cycles:   52638949 heartbeat IPC: 0.36814 cumulative IPC: 0.35819 (Simulation time: 0 hr 6 min 42 sec) 
Heartbeat CPU  3 instructions:   63000000 cycles:   53306320 heartbeat IPC: 0.38293 cumulative IPC: 0.37995 (Simulation time: 0 hr 6 min 45 sec) 
Heartbeat CPU  0 instructions:   67000002 cycles:   54259389 heartbeat IPC: 0.37352 cumulative IPC: 0.38515 (Simulation time: 0 hr 6 min 47 sec) 
Heartbeat CPU  1 instructions:   63000000 cycles:   54627618 heartbeat IPC: 0.47693 cumulative IPC: 0.37102 (Simulation time: 0 hr 6 min 48 sec) 
Heartbeat CPU  2 instructions:   64000000 cycles:   55341475 heartbeat IPC: 0.37002 cumulative IPC: 0.35908 (Simulation time: 0 hr 6 min 50 sec) 
Heartbeat CPU  3 instructions:   64000000 cycles:   55955011 heartbeat IPC: 0.37754 cumulative IPC: 0.37978 (Simulation time: 0 hr 6 min 52 sec) 
Heartbeat CPU  0 instructions:   68000000 cycles:   57036261 heartbeat IPC: 0.36012 cumulative IPC: 0.38329 (Simulation time: 0 hr 6 min 55 sec) 
Heartbeat CPU  1 instructions:   64000000 cycles:   57204439 heartbeat IPC: 0.38808 cumulative IPC: 0.37219 (Simulation time: 0 hr 6 min 56 sec) 
Heartbeat CPU  2 instructions:   65000003 cycles:   58024711 heartbeat IPC: 0.37269 cumulative IPC: 0.36003 (Simulation time: 0 hr 6 min 58 sec) 
Heartbeat CPU  3 instructions:   65000002 cycles:   58845223 heartbeat IPC: 0.34600 cumulative IPC: 0.37729 (Simulation time: 0 hr 7 min 1 sec) 
Heartbeat CPU  0 instructions:   69000003 cycles:   59340471 heartbeat IPC: 0.43399 cumulative IPC: 0.38623 (Simulation time: 0 hr 7 min 2 sec) 
Heartbeat CPU  1 instructions:   65000003 cycles:   59794476 heartbeat IPC: 0.38610 cumulative IPC: 0.37309 (Simulation time: 0 hr 7 min 4 sec) 
Heartbeat CPU  2 instructions:   66000000 cycles:   60215398 heartbeat IPC: 0.45648 cumulative IPC: 0.36523 (Simulation time: 0 hr 7 min 5 sec) 
Heartbeat CPU  0 instructions:   70000003 cycles:   61882016 heartbeat IPC: 0.39346 cumulative IPC: 0.38666 (Simulation time: 0 hr 7 min 10 sec) 
Heartbeat CPU  3 instructions:   66000001 cycles:   62168386 heartbeat IPC: 0.30092 cumulative IPC: 0.37133 (Simulation time: 0 hr 7 min 10 sec) 
Heartbeat CPU  1 instructions:   66000002 cycles:   62994154 heartbeat IPC: 0.31253 cumulative IPC: 0.36862 (Simulation time: 0 hr 7 min 13 sec) 
Heartbeat CPU  2 instructions:   67000000 cycles:   63421732 heartbeat IPC: 0.31188 cumulative IPC: 0.36133 (Simulation time: 0 hr 7 min 14 sec) 
Heartbeat CPU  0 instructions:   71000000 cycles:   65056107 heartbeat IPC: 0.31505 cumulative IPC: 0.38167 (Simulation time: 0 hr 7 min 19 sec) 
Heartbeat CPU  1 instructions:   67000003 cycles:   65420501 heartbeat IPC: 0.41214 cumulative IPC: 0.37093 (Simulation time: 0 hr 7 min 20 sec) 
Heartbeat CPU  3 instructions:   67000000 cycles:   65450849 heartbeat IPC: 0.30465 cumulative IPC: 0.36656 (Simulation time: 0 hr 7 min 20 sec) 
Heartbeat CPU  2 instructions:   68000000 cycles:   65934158 heartbeat IPC: 0.39802 cumulative IPC: 0.36332 (Simulation time: 0 hr 7 min 22 sec) 
Heartbeat CPU  0 instructions:   72000000 cycles:   67309224 heartbeat IPC: 0.44383 cumulative IPC: 0.38460 (Simulation time: 0 hr 7 min 26 sec) 
Heartbeat CPU  1 instructions:   68000000 cycles:   67670250 heartbeat IPC: 0.44449 cumulative IPC: 0.37437 (Simulation time: 0 hr 7 min 27 sec) 
Heartbeat CPU  3 instructions:   68000000 cycles:   68168379 heartbeat IPC: 0.36798 cumulative IPC: 0.36664 (Simulation time: 0 hr 7 min 29 sec) 
Heartbeat CPU  2 instructions:   69000000 cycles:   68757222 heartbeat IPC: 0.35423 cumulative IPC: 0.36280 (Simulation time: 0 hr 7 min 31 sec) 
Heartbeat CPU  0 instructions:   73000001 cycles:   69834728 heartbeat IPC: 0.39596 cumulative IPC: 0.38517 (Simulation time: 0 hr 7 min 34 sec) 
Heartbeat CPU  1 instructions:   69000001 cycles:   69943709 heartbeat IPC: 0.43986 cumulative IPC: 0.37732 (Simulation time: 0 hr 7 min 34 sec) 
Heartbeat CPU  3 instructions:   69000002 cycles:   70927807 heartbeat IPC: 0.36239 cumulative IPC: 0.36641 (Simulation time: 0 hr 7 min 37 sec) 
Heartbeat CPU  2 instructions:   70000000 cycles:   71539116 heartbeat IPC: 0.35947 cumulative IPC: 0.36262 (Simulation time: 0 hr 7 min 39 sec) 
Heartbeat CPU  0 instructions:   74000000 cycles:   72388962 heartbeat IPC: 0.39151 cumulative IPC: 0.38548 (Simulation time: 0 hr 7 min 41 sec) 
Heartbeat CPU  1 instructions:   70000003 cycles:   73128307 heartbeat IPC: 0.31401 cumulative IPC: 0.37356 (Simulation time: 0 hr 7 min 44 sec) 
Heartbeat CPU  3 instructions:   70000003 cycles:   73828040 heartbeat IPC: 0.34480 cumulative IPC: 0.36525 (Simulation time: 0 hr 7 min 46 sec) 
Heartbeat CPU  2 instructions:   71000001 cycles:   74490651 heartbeat IPC: 0.33881 cumulative IPC: 0.36134 (Simulation time: 0 hr 7 min 48 sec) 
Heartbeat CPU  0 instructions:   75000003 cycles:   74947809 heartbeat IPC: 0.39080 cumulative IPC: 0.38572 (Simulation time: 0 hr 7 min 50 sec) 
Heartbeat CPU  3 instructions:   71000002 cycles:   75958306 heartbeat IPC: 0.46942 cumulative IPC: 0.36919 (Simulation time: 0 hr 7 min 53 sec) 
Heartbeat CPU  1 instructions:   71000001 cycles:   76020557 heartbeat IPC: 0.34575 cumulative IPC: 0.37213 (Simulation time: 0 hr 7 min 53 sec) 
Heartbeat CPU  2 instructions:   72000000 cycles:   76874026 heartbeat IPC: 0.41957 cumulative IPC: 0.36376 (Simulation time: 0 hr 7 min 55 sec) 
Heartbeat CPU  0 instructions:   76000000 cycles:   77464438 heartbeat IPC: 0.39736 cumulative IPC: 0.38623 (Simulation time: 0 hr 7 min 57 sec) 
Heartbeat CPU  3 instructions:   72000000 cycles:   78495631 heartbeat IPC: 0.39412 cumulative IPC: 0.37026 (Simulation time: 0 hr 8 min 0 sec) 
Heartbeat CPU  1 instructions:   72000000 cycles:   78612867 heartbeat IPC: 0.38576 cumulative IPC: 0.37273 (Simulation time: 0 hr 8 min 1 sec) 
Heartbeat CPU  0 instructions:   77000003 cycles:   79571296 heartbeat IPC: 0.47464 cumulative IPC: 0.38934 (Simulation time: 0 hr 8 min 4 sec) 
Heartbeat CPU  2 instructions:   73000003 cycles:   79791091 heartbeat IPC: 0.34281 cumulative IPC: 0.36275 (Simulation time: 0 hr 8 min 4 sec) 
Heartbeat CPU  1 instructions:   73000001 cycles:   80767963 heartbeat IPC: 0.46402 cumulative IPC: 0.37595 (Simulation time: 0 hr 8 min 8 sec) 
Heartbeat CPU  3 instructions:   73000003 cycles:   81391403 heartbeat IPC: 0.34533 cumulative IPC: 0.36910 (Simulation time: 0 hr 8 min 9 sec) 
Heartbeat CPU  2 instructions:   74000003 cycles:   82616733 heartbeat IPC: 0.35390 cumulative IPC: 0.36235 (Simulation time: 0 hr 8 min 13 sec) 
Heartbeat CPU  0 instructions:   78000002 cycles:   82640203 heartbeat IPC: 0.32585 cumulative IPC: 0.38625 (Simulation time: 0 hr 8 min 13 sec) 
Heartbeat CPU  1 instructions:   74000002 cycles:   83562372 heartbeat IPC: 0.35786 cumulative IPC: 0.37516 (Simulation time: 0 hr 8 min 16 sec) 
Heartbeat CPU  3 instructions:   74000003 cycles:   84246117 heartbeat IPC: 0.35030 cumulative IPC: 0.36827 (Simulation time: 0 hr 8 min 18 sec) 
Heartbeat CPU  2 instructions:   75000000 cycles:   85234572 heartbeat IPC: 0.38199 cumulative IPC: 0.36313 (Simulation time: 0 hr 8 min 21 sec) 
Heartbeat CPU  0 instructions:   79000003 cycles:   85537679 heartbeat IPC: 0.34513 cumulative IPC: 0.38444 (Simulation time: 0 hr 8 min 21 sec) 
Heartbeat CPU  1 instructions:   75000000 cycles:   86388274 heartbeat IPC: 0.35387 cumulative IPC: 0.37426 (Simulation time: 0 hr 8 min 24 sec) 
Heartbeat CPU  3 instructions:   75000002 cycles:   86979638 heartbeat IPC: 0.36583 cumulative IPC: 0.36817 (Simulation time: 0 hr 8 min 26 sec) 
Heartbeat CPU  2 instructions:   76000000 cycles:   87821407 heartbeat IPC: 0.38657 cumulative IPC: 0.36402 (Simulation time: 0 hr 8 min 28 sec) 
Heartbeat CPU  0 instructions:   80000000 cycles:   88090130 heartbeat IPC: 0.39178 cumulative IPC: 0.38471 (Simulation time: 0 hr 8 min 29 sec) 
Heartbeat CPU  1 instructions:   76000000 cycles:   89254518 heartbeat IPC: 0.34889 cumulative IPC: 0.37321 (Simulation time: 0 hr 8 min 33 sec) 
Heartbeat CPU  3 instructions:   76000000 cycles:   89606754 heartbeat IPC: 0.38064 cumulative IPC: 0.36864 (Simulation time: 0 hr 8 min 34 sec) 
Heartbeat CPU  2 instructions:   77000000 cycles:   89942839 heartbeat IPC: 0.47138 cumulative IPC: 0.36726 (Simulation time: 0 hr 8 min 35 sec) 
Heartbeat CPU  0 instructions:   81000002 cycles:   90653403 heartbeat IPC: 0.39013 cumulative IPC: 0.38491 (Simulation time: 0 hr 8 min 37 sec) 
Heartbeat CPU  1 instructions:   77000003 cycles:   91923875 heartbeat IPC: 0.37462 cumulative IPC: 0.37326 (Simulation time: 0 hr 8 min 41 sec) 
Heartbeat CPU  3 instructions:   77000001 cycles:   92380635 heartbeat IPC: 0.36051 cumulative IPC: 0.36833 (Simulation time: 0 hr 8 min 42 sec) 
Heartbeat CPU  2 instructions:   78000000 cycles:   92557010 heartbeat IPC: 0.38253 cumulative IPC: 0.36781 (Simulation time: 0 hr 8 min 43 sec) 
Heartbeat CPU  0 instructions:   82000003 cycles:   92819466 heartbeat IPC: 0.46167 cumulative IPC: 0.38718 (Simulation time: 0 hr 8 min 44 sec) 
Heartbeat CPU  1 instructions:   78000000 cycles:   94065390 heartbeat IPC: 0.46696 cumulative IPC: 0.37596 (Simulation time: 0 hr 8 min 48 sec) 
Heartbeat CPU  2 instructions:   79000003 cycles:   95185007 heartbeat IPC: 0.38052 cumulative IPC: 0.36825 (Simulation time: 0 hr 8 min 51 sec) 
Heartbeat CPU  3 instructions:   78000002 cycles:   95450471 heartbeat IPC: 0.32575 cumulative IPC: 0.36660 (Simulation time: 0 hr 8 min 52 sec) 
Heartbeat CPU  0 instructions:   83000003 cycles:   95482587 heartbeat IPC: 0.37550 cumulative IPC: 0.38677 (Simulation time: 0 hr 8 min 52 sec) 
Heartbeat CPU  1 instructions:   79000002 cycles:   96755331 heartbeat IPC: 0.37176 cumulative IPC: 0.37581 (Simulation time: 0 hr 8 min 56 sec) 
Heartbeat CPU  2 instructions:   80000000 cycles:   97785624 heartbeat IPC: 0.38452 cumulative IPC: 0.36879 (Simulation time: 0 hr 8 min 59 sec) 
Heartbeat CPU  3 instructions:   79000003 cycles:   97857901 heartbeat IPC: 0.41538 cumulative IPC: 0.36810 (Simulation time: 0 hr 8 min 59 sec) 
Heartbeat CPU  0 instructions:   84000000 cycles:   98166158 heartbeat IPC: 0.37264 cumulative IPC: 0.38629 (Simulation time: 0 hr 9 min 0 sec) 
Heartbeat CPU  1 instructions:   80000000 cycles:   99404218 heartbeat IPC: 0.37752 cumulative IPC: 0.37587 (Simulation time: 0 hr 9 min 4 sec) 
Heartbeat CPU  3 instructions:   80000000 cycles:  100498888 heartbeat IPC: 0.37865 cumulative IPC: 0.36845 (Simulation time: 0 hr 9 min 7 sec) 
Heartbeat CPU  2 instructions:   81000000 cycles:  100644002 heartbeat IPC: 0.34985 cumulative IPC: 0.36812 (Simulation time: 0 hr 9 min 7 sec) 
Heartbeat CPU  0 instructions:   85000001 cycles:  101303262 heartbeat IPC: 0.31877 cumulative IPC: 0.38369 (Simulation time: 0 hr 9 min 9 sec) 
Heartbeat CPU  1 instructions:   81000000 cycles:  102059369 heartbeat IPC: 0.37663 cumulative IPC: 0.37589 (Simulation time: 0 hr 9 min 12 sec) 
Heartbeat CPU  2 instructions:   82000002 cycles:  102711849 heartbeat IPC: 0.48360 cumulative IPC: 0.37099 (Simulation time: 0 hr 9 min 14 sec) 
Heartbeat CPU  3 instructions:   81000001 cycles:  103163353 heartbeat IPC: 0.37531 cumulative IPC: 0.36867 (Simulation time: 0 hr 9 min 15 sec) 
Heartbeat CPU  0 instructions:   86000001 cycles:  104225308 heartbeat IPC: 0.34223 cumulative IPC: 0.38226 (Simulation time: 0 hr 9 min 18 sec) 
Heartbeat CPU  2 instructions:   83000002 cycles:  105266557 heartbeat IPC: 0.39143 cumulative IPC: 0.37160 (Simulation time: 0 hr 9 min 21 sec) 
Heartbeat CPU  1 instructions:   82000003 cycles:  105525187 heartbeat IPC: 0.28853 cumulative IPC: 0.37237 (Simulation time: 0 hr 9 min 22 sec) 
Heartbeat CPU  3 instructions:   82000002 cycles:  106041562 heartbeat IPC: 0.34744 cumulative IPC: 0.36796 (Simulation time: 0 hr 9 min 24 sec) 
Heartbeat CPU  0 instructions:   87000000 cycles:  106350131 heartbeat IPC: 0.47063 cumulative IPC: 0.38443 (Simulation time: 0 hr 9 min 25 sec) 
Heartbeat CPU  2 instructions:   84000000 cycles:  107779551 heartbeat IPC: 0.39793 cumulative IPC: 0.37235 (Simulation time: 0 hr 9 min 29 sec) 
Heartbeat CPU  1 instructions:   83000002 cycles:  108308069 heartbeat IPC: 0.35934 cumulative IPC: 0.37196 (Simulation time: 0 hr 9 min 30 sec) 
Heartbeat CPU  3 instructions:   83000003 cycles:  108583232 heartbeat IPC: 0.39344 cumulative IPC: 0.36869 (Simulation time: 0 hr 9 min 31 sec) 
Heartbeat CPU  0 instructions:   88000000 cycles:  109164627 heartbeat IPC: 0.35530 cumulative IPC: 0.38351 (Simulation time: 0 hr 9 min 33 sec) 
Heartbeat CPU  2 instructions:   85000001 cycles:  110311678 heartbeat IPC: 0.39493 cumulative IPC: 0.37298 (Simulation time: 0 hr 9 min 36 sec) 
Heartbeat CPU  3 instructions:   84000000 cycles:  111156578 heartbeat IPC: 0.38860 cumulative IPC: 0.36925 (Simulation time: 0 hr 9 min 39 sec) 
Heartbeat CPU  1 instructions:   84000000 cycles:  111169188 heartbeat IPC: 0.34951 cumulative IPC: 0.37126 (Simulation time: 0 hr 9 min 39 sec) 
Heartbeat CPU  0 instructions:   89000001 cycles:  111703774 heartbeat IPC: 0.39383 cumulative IPC: 0.38380 (Simulation time: 0 hr 9 min 41 sec) 
Heartbeat CPU  2 instructions:   86000002 cycles:  113348007 heartbeat IPC: 0.32935 cumulative IPC: 0.37157 (Simulation time: 0 hr 9 min 45 sec) 
Heartbeat CPU  1 instructions:   85000001 cycles:  113682861 heartbeat IPC: 0.39782 cumulative IPC: 0.37197 (Simulation time: 0 hr 9 min 47 sec) 
Heartbeat CPU  3 instructions:   85000000 cycles:  113739005 heartbeat IPC: 0.38723 cumulative IPC: 0.36974 (Simulation time: 0 hr 9 min 47 sec) 
Heartbeat CPU  0 instructions:   90000002 cycles:  114900081 heartbeat IPC: 0.31286 cumulative IPC: 0.38142 (Simulation time: 0 hr 9 min 50 sec) 
Heartbeat CPU  2 instructions:   87000002 cycles:  115721643 heartbeat IPC: 0.42129 cumulative IPC: 0.37280 (Simulation time: 0 hr 9 min 53 sec) 
Heartbeat CPU  3 instructions:   86000000 cycles:  116233650 heartbeat IPC: 0.40086 cumulative IPC: 0.37054 (Simulation time: 0 hr 9 min 54 sec) 
Heartbeat CPU  1 instructions:   86000003 cycles:  117211425 heartbeat IPC: 0.28340 cumulative IPC: 0.36877 (Simulation time: 0 hr 9 min 57 sec) 
Heartbeat CPU  0 instructions:   91000000 cycles:  117587513 heartbeat IPC: 0.37210 cumulative IPC: 0.38116 (Simulation time: 0 hr 9 min 58 sec) 
Heartbeat CPU  2 instructions:   88000000 cycles:  118193131 heartbeat IPC: 0.40461 cumulative IPC: 0.37360 (Simulation time: 0 hr 10 min 0 sec) 
Heartbeat CPU  0 instructions:   92000000 cycles:  119782114 heartbeat IPC: 0.45566 cumulative IPC: 0.38279 (Simulation time: 0 hr 10 min 4 sec) 
Heartbeat CPU  3 instructions:   87000001 cycles:  120477913 heartbeat IPC: 0.23561 cumulative IPC: 0.36487 (Simulation time: 0 hr 10 min 5 sec) 
Heartbeat CPU  2 instructions:   89000000 cycles:  120679593 heartbeat IPC: 0.40218 cumulative IPC: 0.37430 (Simulation time: 0 hr 10 min 6 sec) 
Heartbeat CPU  1 instructions:   87000000 cycles:  122210460 heartbeat IPC: 0.20004 cumulative IPC: 0.36055 (Simulation time: 0 hr 10 min 10 sec) 
Heartbeat CPU  0 instructions:   93000000 cycles:  122479524 heartbeat IPC: 0.37073 cumulative IPC: 0.38248 (Simulation time: 0 hr 10 min 11 sec) 
Heartbeat CPU  2 instructions:   90000003 cycles:  122739403 heartbeat IPC: 0.48548 cumulative IPC: 0.37652 (Simulation time: 0 hr 10 min 12 sec) 
Heartbeat CPU  3 instructions:   88000000 cycles:  124286638 heartbeat IPC: 0.26255 cumulative IPC: 0.36114 (Simulation time: 0 hr 10 min 16 sec) 
Heartbeat CPU  0 instructions:   94000002 cycles:  125197477 heartbeat IPC: 0.36792 cumulative IPC: 0.38210 (Simulation time: 0 hr 10 min 18 sec) 
Heartbeat CPU  2 instructions:   91000000 cycles:  125732215 heartbeat IPC: 0.33413 cumulative IPC: 0.37532 (Simulation time: 0 hr 10 min 19 sec) 
Heartbeat CPU  3 instructions:   89000003 cycles:  126884409 heartbeat IPC: 0.38495 cumulative IPC: 0.36172 (Simulation time: 0 hr 10 min 22 sec) 
Heartbeat CPU  0 instructions:   95000002 cycles:  127924955 heartbeat IPC: 0.36664 cumulative IPC: 0.38171 (Simulation time: 0 hr 10 min 25 sec) 
Heartbeat CPU  1 instructions:   88000000 cycles:  128539489 heartbeat IPC: 0.15800 cumulative IPC: 0.34878 (Simulation time: 0 hr 10 min 27 sec) 
Heartbeat CPU  2 instructions:   92000000 cycles:  128660201 heartbeat IPC: 0.34153 cumulative IPC: 0.37442 (Simulation time: 0 hr 10 min 27 sec) 
Heartbeat CPU  3 instructions:   90000001 cycles:  129043549 heartbeat IPC: 0.46315 cumulative IPC: 0.36372 (Simulation time: 0 hr 10 min 28 sec) 
Heartbeat CPU  0 instructions:   96000000 cycles:  130124326 heartbeat IPC: 0.45467 cumulative IPC: 0.38316 (Simulation time: 0 hr 10 min 31 sec) 
Heartbeat CPU  2 instructions:   93000001 cycles:  131571819 heartbeat IPC: 0.34345 cumulative IPC: 0.37361 (Simulation time: 0 hr 10 min 35 sec) 
Heartbeat CPU  3 instructions:   91000001 cycles:  131630447 heartbeat IPC: 0.38656 cumulative IPC: 0.36425 (Simulation time: 0 hr 10 min 35 sec) 
Heartbeat CPU  0 instructions:   97000002 cycles:  132768555 heartbeat IPC: 0.37818 cumulative IPC: 0.38305 (Simulation time: 0 hr 10 min 38 sec) 
Heartbeat CPU  1 instructions:   89000000 cycles:  133944180 heartbeat IPC: 0.18502 cumulative IPC: 0.34104 (Simulation time: 0 hr 10 min 41 sec) 
Heartbeat CPU  2 instructions:   94000003 cycles:  134243750 heartbeat IPC: 0.37426 cumulative IPC: 0.37363 (Simulation time: 0 hr 10 min 42 sec) 
Heartbeat CPU  3 instructions:   92000000 cycles:  135032786 heartbeat IPC: 0.29392 cumulative IPC: 0.36218 (Simulation time: 0 hr 10 min 44 sec) 
Heartbeat CPU  0 instructions:   98000002 cycles:  136227377 heartbeat IPC: 0.28912 cumulative IPC: 0.38026 (Simulation time: 0 hr 10 min 48 sec) 
Heartbeat CPU  1 instructions:   90000000 cycles:  136545700 heartbeat IPC: 0.38439 cumulative IPC: 0.34201 (Simulation time: 0 hr 10 min 49 sec) 
Heartbeat CPU  2 instructions:   95000001 cycles:  137506203 heartbeat IPC: 0.30652 cumulative IPC: 0.37177 (Simulation time: 0 hr 10 min 51 sec) 
Heartbeat CPU  3 instructions:   93000000 cycles:  137814868 heartbeat IPC: 0.35944 cumulative IPC: 0.36211 (Simulation time: 0 hr 10 min 52 sec) 
Heartbeat CPU  0 instructions:   99000001 cycles:  138884621 heartbeat IPC: 0.37633 cumulative IPC: 0.38018 (Simulation time: 0 hr 10 min 56 sec) 
Heartbeat CPU  1 instructions:   91000003 cycles:  139646561 heartbeat IPC: 0.32249 cumulative IPC: 0.34150 (Simulation time: 0 hr 10 min 58 sec) 
Heartbeat CPU  2 instructions:   96000000 cycles:  139755710 heartbeat IPC: 0.44454 cumulative IPC: 0.37313 (Simulation time: 0 hr 10 min 58 sec) 
*** Reached end of trace for Core: 0 Repeating trace: /data3/CASSANDRA/traces/cassandra_phase5_core0.trace.xz
Heartbeat CPU  0 instructions:  100000000 cycles:  141099240 heartbeat IPC: 0.45154 cumulative IPC: 0.38148 (Simulation time: 0 hr 11 min 2 sec) 
Heartbeat CPU  2 instructions:   97000003 cycles:  141925347 heartbeat IPC: 0.46091 cumulative IPC: 0.37469 (Simulation time: 0 hr 11 min 4 sec) 
Heartbeat CPU  3 instructions:   94000001 cycles:  142346974 heartbeat IPC: 0.22065 cumulative IPC: 0.35689 (Simulation time: 0 hr 11 min 6 sec) 
Heartbeat CPU  1 instructions:   92000000 cycles:  142628581 heartbeat IPC: 0.33534 cumulative IPC: 0.34135 (Simulation time: 0 hr 11 min 6 sec) 
Heartbeat CPU  0 instructions:  101000000 cycles:  144144943 heartbeat IPC: 0.32833 cumulative IPC: 0.38018 (Simulation time: 0 hr 11 min 11 sec) 
Heartbeat CPU  2 instructions:   98000001 cycles:  144579795 heartbeat IPC: 0.37673 cumulative IPC: 0.37473 (Simulation time: 0 hr 11 min 13 sec) 
Heartbeat CPU  1 instructions:   93000002 cycles:  144899827 heartbeat IPC: 0.44029 cumulative IPC: 0.34315 (Simulation time: 0 hr 11 min 14 sec) 
Heartbeat CPU  3 instructions:   95000003 cycles:  145387005 heartbeat IPC: 0.32894 cumulative IPC: 0.35621 (Simulation time: 0 hr 11 min 15 sec) 
Heartbeat CPU  0 instructions:  102000002 cycles:  146253233 heartbeat IPC: 0.47432 cumulative IPC: 0.38174 (Simulation time: 0 hr 11 min 17 sec) 
Heartbeat CPU  2 instructions:   99000002 cycles:  147975995 heartbeat IPC: 0.29445 cumulative IPC: 0.37261 (Simulation time: 0 hr 11 min 22 sec) 
Heartbeat CPU  3 instructions:   96000000 cycles:  148230743 heartbeat IPC: 0.35165 cumulative IPC: 0.35611 (Simulation time: 0 hr 11 min 23 sec) 
Heartbeat CPU  0 instructions:  103000001 cycles:  148746267 heartbeat IPC: 0.40112 cumulative IPC: 0.38212 (Simulation time: 0 hr 11 min 24 sec) 
Heartbeat CPU  1 instructions:   94000000 cycles:  149494849 heartbeat IPC: 0.21763 cumulative IPC: 0.33871 (Simulation time: 0 hr 11 min 26 sec) 
Heartbeat CPU  3 instructions:   97000001 cycles:  150607083 heartbeat IPC: 0.42082 cumulative IPC: 0.35729 (Simulation time: 0 hr 11 min 29 sec) 
*** Reached end of trace for Core: 2 Repeating trace: /data3/CASSANDRA/traces/cassandra_phase5_core2.trace.xz
Heartbeat CPU  2 instructions:  100000000 cycles:  150865915 heartbeat IPC: 0.34603 cumulative IPC: 0.37202 (Simulation time: 0 hr 11 min 30 sec) 
Heartbeat CPU  0 instructions:  104000000 cycles:  151278959 heartbeat IPC: 0.39484 cumulative IPC: 0.38236 (Simulation time: 0 hr 11 min 31 sec) 
Heartbeat CPU  3 instructions:   98000003 cycles:  153441647 heartbeat IPC: 0.35279 cumulative IPC: 0.35719 (Simulation time: 0 hr 11 min 37 sec) 
Heartbeat CPU  0 instructions:  105000000 cycles:  153750913 heartbeat IPC: 0.40454 cumulative IPC: 0.38277 (Simulation time: 0 hr 11 min 38 sec) 
Heartbeat CPU  2 instructions:  101000000 cycles:  153803971 heartbeat IPC: 0.34036 cumulative IPC: 0.37133 (Simulation time: 0 hr 11 min 38 sec) 
Heartbeat CPU  1 instructions:   95000000 cycles:  155411035 heartbeat IPC: 0.16903 cumulative IPC: 0.33132 (Simulation time: 0 hr 11 min 42 sec) 
Heartbeat CPU  0 instructions:  106000003 cycles:  156217343 heartbeat IPC: 0.40545 cumulative IPC: 0.38318 (Simulation time: 0 hr 11 min 45 sec) 
Heartbeat CPU  2 instructions:  102000002 cycles:  156349197 heartbeat IPC: 0.39289 cumulative IPC: 0.37173 (Simulation time: 0 hr 11 min 45 sec) 
Heartbeat CPU  3 instructions:   99000003 cycles:  156365532 heartbeat IPC: 0.34201 cumulative IPC: 0.35687 (Simulation time: 0 hr 11 min 45 sec) 
Heartbeat CPU  1 instructions:   96000000 cycles:  158351896 heartbeat IPC: 0.34004 cumulative IPC: 0.33150 (Simulation time: 0 hr 11 min 51 sec) 
*** Reached end of trace for Core: 3 Repeating trace: /data3/CASSANDRA/traces/cassandra_phase5_core3.trace.xz
Heartbeat CPU  3 instructions:  100000000 cycles:  159230848 heartbeat IPC: 0.34900 cumulative IPC: 0.35671 (Simulation time: 0 hr 11 min 53 sec) 
Heartbeat CPU  0 instructions:  107000002 cycles:  159383067 heartbeat IPC: 0.31588 cumulative IPC: 0.38166 (Simulation time: 0 hr 11 min 53 sec) 
Heartbeat CPU  2 instructions:  103000002 cycles:  159657479 heartbeat IPC: 0.30227 cumulative IPC: 0.37009 (Simulation time: 0 hr 11 min 54 sec) 
Heartbeat CPU  0 instructions:  108000000 cycles:  162069047 heartbeat IPC: 0.37230 cumulative IPC: 0.38148 (Simulation time: 0 hr 12 min 0 sec) 
Heartbeat CPU  2 instructions:  104000000 cycles:  162222549 heartbeat IPC: 0.38985 cumulative IPC: 0.37045 (Simulation time: 0 hr 12 min 1 sec) 
Heartbeat CPU  3 instructions:  101000001 cycles:  162358197 heartbeat IPC: 0.31976 cumulative IPC: 0.35590 (Simulation time: 0 hr 12 min 1 sec) 
Heartbeat CPU  1 instructions:   97000003 cycles:  163857873 heartbeat IPC: 0.18162 cumulative IPC: 0.32578 (Simulation time: 0 hr 12 min 5 sec) 
Heartbeat CPU  3 instructions:  102000000 cycles:  164569490 heartbeat IPC: 0.45222 cumulative IPC: 0.35737 (Simulation time: 0 hr 12 min 7 sec) 
Heartbeat CPU  2 instructions:  105000001 cycles:  165063215 heartbeat IPC: 0.35203 cumulative IPC: 0.37009 (Simulation time: 0 hr 12 min 8 sec) 
Heartbeat CPU  0 instructions:  109000001 cycles:  165303149 heartbeat IPC: 0.30921 cumulative IPC: 0.37988 (Simulation time: 0 hr 12 min 9 sec) 
Heartbeat CPU  1 instructions:   98000002 cycles:  166648126 heartbeat IPC: 0.35839 cumulative IPC: 0.32640 (Simulation time: 0 hr 12 min 13 sec) 
Heartbeat CPU  0 instructions:  110000001 cycles:  167408289 heartbeat IPC: 0.47503 cumulative IPC: 0.38123 (Simulation time: 0 hr 12 min 16 sec) 
Heartbeat CPU  3 instructions:  103000002 cycles:  167454631 heartbeat IPC: 0.34660 cumulative IPC: 0.35716 (Simulation time: 0 hr 12 min 16 sec) 
Heartbeat CPU  2 instructions:  106000000 cycles:  167952798 heartbeat IPC: 0.34607 cumulative IPC: 0.36962 (Simulation time: 0 hr 12 min 17 sec) 
Heartbeat CPU  1 instructions:   99000001 cycles:  169225340 heartbeat IPC: 0.38802 cumulative IPC: 0.32746 (Simulation time: 0 hr 12 min 21 sec) 
Heartbeat CPU  3 instructions:  104000000 cycles:  170106848 heartbeat IPC: 0.37704 cumulative IPC: 0.35751 (Simulation time: 0 hr 12 min 24 sec) 
Heartbeat CPU  2 instructions:  107000000 cycles:  170322888 heartbeat IPC: 0.42192 cumulative IPC: 0.37044 (Simulation time: 0 hr 12 min 24 sec) 
Heartbeat CPU  0 instructions:  111000002 cycles:  170499390 heartbeat IPC: 0.32351 cumulative IPC: 0.38005 (Simulation time: 0 hr 12 min 25 sec) 
*** Reached end of trace for Core: 1 Repeating trace: /data3/CASSANDRA/traces/cassandra_phase5_core1.trace.xz
Heartbeat CPU  1 instructions:  100000000 cycles:  171823425 heartbeat IPC: 0.38490 cumulative IPC: 0.32844 (Simulation time: 0 hr 12 min 29 sec) 
Heartbeat CPU  0 instructions:  112000000 cycles:  172964798 heartbeat IPC: 0.40561 cumulative IPC: 0.38046 (Simulation time: 0 hr 12 min 33 sec) 
Heartbeat CPU  2 instructions:  108000000 cycles:  173050538 heartbeat IPC: 0.36662 cumulative IPC: 0.37037 (Simulation time: 0 hr 12 min 33 sec) 
Heartbeat CPU  3 instructions:  105000002 cycles:  173377651 heartbeat IPC: 0.30574 cumulative IPC: 0.35640 (Simulation time: 0 hr 12 min 34 sec) 
Heartbeat CPU  1 instructions:  101000003 cycles:  174455447 heartbeat IPC: 0.37994 cumulative IPC: 0.32932 (Simulation time: 0 hr 12 min 37 sec) 
Heartbeat CPU  0 instructions:  113000001 cycles:  175690743 heartbeat IPC: 0.36685 cumulative IPC: 0.38022 (Simulation time: 0 hr 12 min 41 sec) 
Heartbeat CPU  2 instructions:  109000003 cycles:  175936969 heartbeat IPC: 0.34645 cumulative IPC: 0.36993 (Simulation time: 0 hr 12 min 42 sec) 
Heartbeat CPU  3 instructions:  106000002 cycles:  175948746 heartbeat IPC: 0.38894 cumulative IPC: 0.35694 (Simulation time: 0 hr 12 min 42 sec) 
Heartbeat CPU  1 instructions:  102000001 cycles:  176120723 heartbeat IPC: 0.60050 cumulative IPC: 0.33220 (Simulation time: 0 hr 12 min 42 sec) 
Heartbeat CPU  0 instructions:  114000003 cycles:  178404363 heartbeat IPC: 0.36851 cumulative IPC: 0.38002 (Simulation time: 0 hr 12 min 49 sec) 
Heartbeat CPU  3 instructions:  107000003 cycles:  178495709 heartbeat IPC: 0.39262 cumulative IPC: 0.35751 (Simulation time: 0 hr 12 min 50 sec) 
Heartbeat CPU  1 instructions:  103000002 cycles:  178701928 heartbeat IPC: 0.38742 cumulative IPC: 0.33310 (Simulation time: 0 hr 12 min 50 sec) 
Heartbeat CPU  2 instructions:  110000001 cycles:  178907672 heartbeat IPC: 0.33662 cumulative IPC: 0.36931 (Simulation time: 0 hr 12 min 51 sec) 
Heartbeat CPU  0 instructions:  115000000 cycles:  181060152 heartbeat IPC: 0.37653 cumulative IPC: 0.37996 (Simulation time: 0 hr 12 min 57 sec) 
Heartbeat CPU  3 instructions:  108000000 cycles:  181189554 heartbeat IPC: 0.37122 cumulative IPC: 0.35774 (Simulation time: 0 hr 12 min 58 sec) 
Heartbeat CPU  1 instructions:  104000000 cycles:  181195676 heartbeat IPC: 0.40100 cumulative IPC: 0.33415 (Simulation time: 0 hr 12 min 58 sec) 
Heartbeat CPU  2 instructions:  111000003 cycles:  181204465 heartbeat IPC: 0.43539 cumulative IPC: 0.37025 (Simulation time: 0 hr 12 min 58 sec) 
Heartbeat CPU  1 instructions:  105000002 cycles:  183739059 heartbeat IPC: 0.39318 cumulative IPC: 0.33506 (Simulation time: 0 hr 13 min 5 sec) 
Heartbeat CPU  2 instructions:  112000000 cycles:  183926253 heartbeat IPC: 0.36740 cumulative IPC: 0.37020 (Simulation time: 0 hr 13 min 6 sec) 
Heartbeat CPU  3 instructions:  109000003 cycles:  183942718 heartbeat IPC: 0.36322 cumulative IPC: 0.35783 (Simulation time: 0 hr 13 min 6 sec) 
Heartbeat CPU  0 instructions:  116000000 cycles:  183953063 heartbeat IPC: 0.34567 cumulative IPC: 0.37936 (Simulation time: 0 hr 13 min 6 sec) 
Heartbeat CPU  1 instructions:  106000003 cycles:  186435622 heartbeat IPC: 0.37084 cumulative IPC: 0.33564 (Simulation time: 0 hr 13 min 13 sec) 
Heartbeat CPU  2 instructions:  113000000 cycles:  186526907 heartbeat IPC: 0.38452 cumulative IPC: 0.37043 (Simulation time: 0 hr 13 min 13 sec) 
Heartbeat CPU  0 instructions:  117000002 cycles:  186667994 heartbeat IPC: 0.36833 cumulative IPC: 0.37918 (Simulation time: 0 hr 13 min 14 sec) 
Heartbeat CPU  3 instructions:  110000000 cycles:  186927759 heartbeat IPC: 0.33500 cumulative IPC: 0.35742 (Simulation time: 0 hr 13 min 14 sec) 
Heartbeat CPU  0 instructions:  118000000 cycles:  189053224 heartbeat IPC: 0.41925 cumulative IPC: 0.37975 (Simulation time: 0 hr 13 min 20 sec) 
Heartbeat CPU  1 instructions:  107000001 cycles:  189502933 heartbeat IPC: 0.32602 cumulative IPC: 0.33546 (Simulation time: 0 hr 13 min 22 sec) 
Heartbeat CPU  3 instructions:  111000001 cycles:  189631187 heartbeat IPC: 0.36990 cumulative IPC: 0.35762 (Simulation time: 0 hr 13 min 22 sec) 
Heartbeat CPU  2 instructions:  114000000 cycles:  190603151 heartbeat IPC: 0.24532 cumulative IPC: 0.36744 (Simulation time: 0 hr 13 min 25 sec) 
Heartbeat CPU  0 instructions:  119000000 cycles:  191705850 heartbeat IPC: 0.37698 cumulative IPC: 0.37970 (Simulation time: 0 hr 13 min 28 sec) 
Heartbeat CPU  1 instructions:  108000000 cycles:  192410593 heartbeat IPC: 0.34392 cumulative IPC: 0.33561 (Simulation time: 0 hr 13 min 30 sec) 
Heartbeat CPU  3 instructions:  112000000 cycles:  192748519 heartbeat IPC: 0.32079 cumulative IPC: 0.35696 (Simulation time: 0 hr 13 min 31 sec) 
Heartbeat CPU  2 instructions:  115000002 cycles:  193332986 heartbeat IPC: 0.36632 cumulative IPC: 0.36743 (Simulation time: 0 hr 13 min 32 sec) 
Heartbeat CPU  0 instructions:  120000000 cycles:  194611671 heartbeat IPC: 0.34414 cumulative IPC: 0.37911 (Simulation time: 0 hr 13 min 36 sec) 
Heartbeat CPU  3 instructions:  113000000 cycles:  195420581 heartbeat IPC: 0.37424 cumulative IPC: 0.35722 (Simulation time: 0 hr 13 min 38 sec) 
Heartbeat CPU  2 instructions:  116000000 cycles:  195650460 heartbeat IPC: 0.43150 cumulative IPC: 0.36827 (Simulation time: 0 hr 13 min 39 sec) 
Heartbeat CPU  1 instructions:  109000003 cycles:  196104562 heartbeat IPC: 0.27071 cumulative IPC: 0.33425 (Simulation time: 0 hr 13 min 40 sec) 
Heartbeat CPU  0 instructions:  121000002 cycles:  196785741 heartbeat IPC: 0.45997 cumulative IPC: 0.38010 (Simulation time: 0 hr 13 min 43 sec) 
Heartbeat CPU  2 instructions:  117000000 cycles:  198341275 heartbeat IPC: 0.37163 cumulative IPC: 0.36832 (Simulation time: 0 hr 13 min 47 sec) 
Heartbeat CPU  3 instructions:  114000001 cycles:  198352058 heartbeat IPC: 0.34113 cumulative IPC: 0.35696 (Simulation time: 0 hr 13 min 47 sec) 
Heartbeat CPU  1 instructions:  110000001 cycles:  199608188 heartbeat IPC: 0.28542 cumulative IPC: 0.33330 (Simulation time: 0 hr 13 min 50 sec) 
Heartbeat CPU  0 instructions:  122000000 cycles:  199776086 heartbeat IPC: 0.33441 cumulative IPC: 0.37935 (Simulation time: 0 hr 13 min 51 sec) 
Heartbeat CPU  3 instructions:  115000001 cycles:  200571758 heartbeat IPC: 0.45051 cumulative IPC: 0.35811 (Simulation time: 0 hr 13 min 53 sec) 
Heartbeat CPU  2 instructions:  118000003 cycles:  202090843 heartbeat IPC: 0.26670 cumulative IPC: 0.36623 (Simulation time: 0 hr 13 min 57 sec) 
Heartbeat CPU  0 instructions:  123000000 cycles:  202899916 heartbeat IPC: 0.32012 cumulative IPC: 0.37834 (Simulation time: 0 hr 13 min 59 sec) 
Heartbeat CPU  3 instructions:  116000000 cycles:  203535783 heartbeat IPC: 0.33738 cumulative IPC: 0.35777 (Simulation time: 0 hr 14 min 1 sec) 
Heartbeat CPU  1 instructions:  111000002 cycles:  203601364 heartbeat IPC: 0.25043 cumulative IPC: 0.33150 (Simulation time: 0 hr 14 min 1 sec) 
Heartbeat CPU  0 instructions:  124000000 cycles:  205007170 heartbeat IPC: 0.47455 cumulative IPC: 0.37943 (Simulation time: 0 hr 14 min 6 sec) 
Heartbeat CPU  2 instructions:  119000000 cycles:  205216728 heartbeat IPC: 0.31991 cumulative IPC: 0.36545 (Simulation time: 0 hr 14 min 7 sec) 
Heartbeat CPU  1 instructions:  112000000 cycles:  205228292 heartbeat IPC: 0.61465 cumulative IPC: 0.33398 (Simulation time: 0 hr 14 min 7 sec) 
Heartbeat CPU  3 instructions:  117000003 cycles:  206184035 heartbeat IPC: 0.37761 cumulative IPC: 0.35805 (Simulation time: 0 hr 14 min 9 sec) 
Heartbeat CPU  0 instructions:  125000001 cycles:  207646024 heartbeat IPC: 0.37895 cumulative IPC: 0.37942 (Simulation time: 0 hr 14 min 13 sec) 
Heartbeat CPU  1 instructions:  113000001 cycles:  207869423 heartbeat IPC: 0.37863 cumulative IPC: 0.33461 (Simulation time: 0 hr 14 min 14 sec) 
Heartbeat CPU  2 instructions:  120000000 cycles:  208501021 heartbeat IPC: 0.30448 cumulative IPC: 0.36439 (Simulation time: 0 hr 14 min 16 sec) 
Heartbeat CPU  3 instructions:  118000002 cycles:  209319903 heartbeat IPC: 0.31889 cumulative IPC: 0.35741 (Simulation time: 0 hr 14 min 18 sec) 
Heartbeat CPU  2 instructions:  121000000 cycles:  210686685 heartbeat IPC: 0.45753 cumulative IPC: 0.36546 (Simulation time: 0 hr 14 min 22 sec) 
Heartbeat CPU  0 instructions:  126000001 cycles:  210730746 heartbeat IPC: 0.32418 cumulative IPC: 0.37853 (Simulation time: 0 hr 14 min 22 sec) 
Heartbeat CPU  1 instructions:  114000001 cycles:  211459195 heartbeat IPC: 0.27857 cumulative IPC: 0.33356 (Simulation time: 0 hr 14 min 24 sec) 
Heartbeat CPU  3 instructions:  119000000 cycles:  212192460 heartbeat IPC: 0.34812 cumulative IPC: 0.35727 (Simulation time: 0 hr 14 min 26 sec) 
Heartbeat CPU  0 instructions:  127000001 cycles:  213112650 heartbeat IPC: 0.41983 cumulative IPC: 0.37904 (Simulation time: 0 hr 14 min 29 sec) 
Heartbeat CPU  2 instructions:  122000000 cycles:  213302786 heartbeat IPC: 0.38225 cumulative IPC: 0.36568 (Simulation time: 0 hr 14 min 30 sec) 
Heartbeat CPU  1 instructions:  115000003 cycles:  214770240 heartbeat IPC: 0.30202 cumulative IPC: 0.33302 (Simulation time: 0 hr 14 min 34 sec) 
Heartbeat CPU  3 instructions:  120000000 cycles:  214788449 heartbeat IPC: 0.38521 cumulative IPC: 0.35764 (Simulation time: 0 hr 14 min 34 sec) 
Heartbeat CPU  0 instructions:  128000000 cycles:  215750701 heartbeat IPC: 0.37907 cumulative IPC: 0.37904 (Simulation time: 0 hr 14 min 37 sec) 
Heartbeat CPU  2 instructions:  123000002 cycles:  215921392 heartbeat IPC: 0.38188 cumulative IPC: 0.36590 (Simulation time: 0 hr 14 min 37 sec) 
Heartbeat CPU  1 instructions:  116000000 cycles:  217562356 heartbeat IPC: 0.35815 cumulative IPC: 0.33338 (Simulation time: 0 hr 14 min 42 sec) 
Heartbeat CPU  3 instructions:  121000002 cycles:  217660308 heartbeat IPC: 0.34821 cumulative IPC: 0.35750 (Simulation time: 0 hr 14 min 43 sec) 
Heartbeat CPU  0 instructions:  129000000 cycles:  218252809 heartbeat IPC: 0.39966 cumulative IPC: 0.37930 (Simulation time: 0 hr 14 min 44 sec) 
Heartbeat CPU  2 instructions:  124000000 cycles:  218834542 heartbeat IPC: 0.34327 cumulative IPC: 0.36557 (Simulation time: 0 hr 14 min 46 sec) 
Heartbeat CPU  3 instructions:  122000003 cycles:  220255279 heartbeat IPC: 0.38536 cumulative IPC: 0.35786 (Simulation time: 0 hr 14 min 51 sec) 
Heartbeat CPU  1 instructions:  117000002 cycles:  220290115 heartbeat IPC: 0.36660 cumulative IPC: 0.33383 (Simulation time: 0 hr 14 min 51 sec) 
Heartbeat CPU  2 instructions:  125000002 cycles:  220884421 heartbeat IPC: 0.48783 cumulative IPC: 0.36681 (Simulation time: 0 hr 14 min 52 sec) 
Heartbeat CPU  0 instructions:  130000000 cycles:  221498249 heartbeat IPC: 0.30812 cumulative IPC: 0.37816 (Simulation time: 0 hr 14 min 54 sec) 
Heartbeat CPU  1 instructions:  118000003 cycles:  223283320 heartbeat IPC: 0.33409 cumulative IPC: 0.33383 (Simulation time: 0 hr 15 min 0 sec) 
Heartbeat CPU  2 instructions:  126000000 cycles:  223326566 heartbeat IPC: 0.40948 cumulative IPC: 0.36733 (Simulation time: 0 hr 15 min 0 sec) 
Heartbeat CPU  3 instructions:  123000003 cycles:  223452146 heartbeat IPC: 0.31281 cumulative IPC: 0.35716 (Simulation time: 0 hr 15 min 0 sec) 
Heartbeat CPU  0 instructions:  131000001 cycles:  223657777 heartbeat IPC: 0.46306 cumulative IPC: 0.37905 (Simulation time: 0 hr 15 min 1 sec) 
Heartbeat CPU  2 instructions:  127000002 cycles:  225794537 heartbeat IPC: 0.40519 cumulative IPC: 0.36778 (Simulation time: 0 hr 15 min 7 sec) 
Heartbeat CPU  1 instructions:  119000002 cycles:  226098497 heartbeat IPC: 0.35522 cumulative IPC: 0.33413 (Simulation time: 0 hr 15 min 7 sec) 
Heartbeat CPU  0 instructions:  132000000 cycles:  226313866 heartbeat IPC: 0.37649 cumulative IPC: 0.37902 (Simulation time: 0 hr 15 min 8 sec) 
Heartbeat CPU  3 instructions:  124000000 cycles:  227885186 heartbeat IPC: 0.22558 cumulative IPC: 0.35436 (Simulation time: 0 hr 15 min 12 sec) 
Heartbeat CPU  2 instructions:  128000000 cycles:  228411295 heartbeat IPC: 0.38215 cumulative IPC: 0.36796 (Simulation time: 0 hr 15 min 14 sec) 
Heartbeat CPU  1 instructions:  120000000 cycles:  228932829 heartbeat IPC: 0.35282 cumulative IPC: 0.33438 (Simulation time: 0 hr 15 min 15 sec) 
Heartbeat CPU  0 instructions:  133000000 cycles:  229032417 heartbeat IPC: 0.36784 cumulative IPC: 0.37888 (Simulation time: 0 hr 15 min 15 sec) 
Heartbeat CPU  2 instructions:  129000002 cycles:  230880189 heartbeat IPC: 0.40504 cumulative IPC: 0.36839 (Simulation time: 0 hr 15 min 21 sec) 
Heartbeat CPU  3 instructions:  125000003 cycles:  230891544 heartbeat IPC: 0.33263 cumulative IPC: 0.35405 (Simulation time: 0 hr 15 min 21 sec) 
Heartbeat CPU  0 instructions:  134000002 cycles:  231845328 heartbeat IPC: 0.35550 cumulative IPC: 0.37857 (Simulation time: 0 hr 15 min 24 sec) 
Heartbeat CPU  1 instructions:  121000002 cycles:  232350363 heartbeat IPC: 0.29261 cumulative IPC: 0.33371 (Simulation time: 0 hr 15 min 25 sec) 
Heartbeat CPU  2 instructions:  130000000 cycles:  233002482 heartbeat IPC: 0.47119 cumulative IPC: 0.36941 (Simulation time: 0 hr 15 min 27 sec) 
Heartbeat CPU  3 instructions:  126000001 cycles:  233945534 heartbeat IPC: 0.32744 cumulative IPC: 0.35367 (Simulation time: 0 hr 15 min 30 sec) 
Heartbeat CPU  0 instructions:  135000000 cycles:  234814786 heartbeat IPC: 0.33676 cumulative IPC: 0.37799 (Simulation time: 0 hr 15 min 32 sec) 
Heartbeat CPU  1 instructions:  122000001 cycles:  235200406 heartbeat IPC: 0.35087 cumulative IPC: 0.33393 (Simulation time: 0 hr 15 min 33 sec) 
Heartbeat CPU  2 instructions:  131000001 cycles:  235486385 heartbeat IPC: 0.40259 cumulative IPC: 0.36980 (Simulation time: 0 hr 15 min 34 sec) 
Heartbeat CPU  3 instructions:  127000001 cycles:  236383477 heartbeat IPC: 0.41018 cumulative IPC: 0.35430 (Simulation time: 0 hr 15 min 37 sec) 
Heartbeat CPU  1 instructions:  123000000 cycles:  237494311 heartbeat IPC: 0.43594 cumulative IPC: 0.33501 (Simulation time: 0 hr 15 min 40 sec) 
Heartbeat CPU  0 instructions:  136000000 cycles:  237813588 heartbeat IPC: 0.33347 cumulative IPC: 0.37738 (Simulation time: 0 hr 15 min 41 sec) 
[...]
Core_2_L2C_RFO_miss 120262
Core_2_L2C_prefetches 251426
Core_2_L2C_prefetch_hit 147242
Core_2_L2C_prefetch_miss 104184
Core_2_L2C_writebacks 372916
Core_2_L2C_writeback_hit 371396
Core_2_L2C_writeback_miss 1520
Core_2_L2C_prefetch_requested 3829384
Core_2_L2C_prefetch_dropped 0
Core_2_L2C_prefetch_issued 3829384
Core_2_L2C_prefetch_filled 185060
Core_2_L2C_prefetch_useful 167670
Core_2_L2C_prefetch_useless 17362
Core_2_L2C_prefetch_late 79086
Core_2_L2C_average_miss_latency 158.73683

Core_2_L2C_rq_access 1870054
Core_2_L2C_rq_forward 0
Core_2_L2C_rq_merged 0
Core_2_L2C_rq_to_cache 1870013
Core_2_L2C_rq_full 0

Core_2_L2C_wq_access 408549
Core_2_L2C_wq_forward 41
Core_2_L2C_wq_merged 0
Core_2_L2C_wq_to_cache 408549
Core_2_L2C_wq_full 0

Core_2_L2C_pq_access 3829384
Core_2_L2C_pq_forward 0
Core_2_L2C_pq_merged 451105
Core_2_L2C_pq_to_cache 3378279
Core_2_L2C_pq_full 0

Core_2_L2C_acc_epochs 209724
Core_2_L2C_acc_level_0 123082
Core_2_L2C_acc_level_1 14822
Core_2_L2C_acc_level_2 13345
Core_2_L2C_acc_level_3 8749
Core_2_L2C_acc_level_4 4233
Core_2_L2C_acc_level_5 13006
Core_2_L2C_acc_level_6 6846
Core_2_L2C_acc_level_7 5059
Core_2_L2C_acc_level_8 4106
Core_2_L2C_acc_level_9 16476

Core_2_LLC_total_access 3130782
Core_2_LLC_total_hit 1776860
Core_2_LLC_total_miss 1353922
Core_2_LLC_loads 1172653
Core_2_LLC_load_hit 631580
Core_2_LLC_load_miss 541073
Core_2_LLC_RFOs 120261
Core_2_LLC_RFO_hit 26305
Core_2_LLC_RFO_miss 93956
Core_2_LLC_prefetches 1494671
Core_2_LLC_prefetch_hit 814591
Core_2_LLC_prefetch_miss 680080
Core_2_LLC_writebacks 343197
Core_2_LLC_writeback_hit 304384
Core_2_LLC_writeback_miss 38813
Core_2_LLC_prefetch_requested 0
Core_2_LLC_prefetch_dropped 0
Core_2_LLC_prefetch_issued 0
Core_2_LLC_prefetch_filled 4165442
Core_2_LLC_prefetch_useful 1555779
Core_2_LLC_prefetch_useless 2573396
Core_2_LLC_prefetch_late 112912
Core_2_LLC_average_miss_latency 880.38592

Core_2_LLC_rq_access 5705192
Core_2_LLC_rq_forward 0
Core_2_LLC_rq_merged 0
Core_2_LLC_rq_to_cache 5705179
Core_2_LLC_rq_full 0

Core_2_LLC_wq_access 1511177
Core_2_LLC_wq_forward 15
Core_2_LLC_wq_merged 0
Core_2_LLC_wq_to_cache 1511177
Core_2_LLC_wq_full 0

Core_2_LLC_pq_access 11823646
Core_2_LLC_pq_forward 0
Core_2_LLC_pq_merged 628284
Core_2_LLC_pq_to_cache 11195360
Core_2_LLC_pq_full 0

Core_2_LLC_acc_epochs 457593
Core_2_LLC_acc_level_0 6815
Core_2_LLC_acc_level_1 37708
Core_2_LLC_acc_level_2 89853
Core_2_LLC_acc_level_3 103456
Core_2_LLC_acc_level_4 84542
Core_2_LLC_acc_level_5 52890
Core_2_LLC_acc_level_6 33132
Core_2_LLC_acc_level_7 18373
Core_2_LLC_acc_level_8 10033
Core_2_LLC_acc_level_9 20791

Core_2_major_page_fault 0
Core_2_minor_page_fault 44983

Core_3_instructions 150000003
Core_3_cycles 419921147
Core_3_IPC 0.35721

Core_3_branch_prediction_accuracy 97.78154
Core_3_branch_MPKI 2.73499
Core_3_average_ROB_occupancy_at_mispredict 98.64816

Core_3_L1D_total_access 14923129
Core_3_L1D_total_hit 13573730
Core_3_L1D_total_miss 1349399
Core_3_L1D_loads 9868725
Core_3_L1D_load_hit 8666973
Core_3_L1D_load_miss 1201752
Core_3_L1D_RFOs 5054404
Core_3_L1D_RFO_hit 4906757
Core_3_L1D_RFO_miss 147647
Core_3_L1D_prefetches 0
Core_3_L1D_prefetch_hit 0
Core_3_L1D_prefetch_miss 0
Core_3_L1D_writebacks 0
Core_3_L1D_writeback_hit 0
Core_3_L1D_writeback_miss 0
Core_3_L1D_prefetch_requested 0
Core_3_L1D_prefetch_dropped 0
Core_3_L1D_prefetch_issued 0
Core_3_L1D_prefetch_filled 0
Core_3_L1D_prefetch_useful 0
Core_3_L1D_prefetch_useless 0
Core_3_L1D_prefetch_late 0
Core_3_L1D_average_miss_latency 180.21806

Core_3_L1D_rq_access 18795524
Core_3_L1D_rq_forward 0
Core_3_L1D_rq_merged 7963888
Core_3_L1D_rq_to_cache 10830259
Core_3_L1D_rq_full 0

Core_3_L1D_wq_access 6022175
Core_3_L1D_wq_forward 1377
Core_3_L1D_wq_merged 128465
Core_3_L1D_wq_to_cache 5893710
Core_3_L1D_wq_full 0

Core_3_L1D_pq_access 0
Core_3_L1D_pq_forward 0
Core_3_L1D_pq_merged 0
Core_3_L1D_pq_to_cache 0
Core_3_L1D_pq_full 0

Core_3_L1D_acc_epochs 206930
Core_3_L1D_acc_level_0 206930
Core_3_L1D_acc_level_1 0
Core_3_L1D_acc_level_2 0
Core_3_L1D_acc_level_3 0
Core_3_L1D_acc_level_4 0
Core_3_L1D_acc_level_5 0
Core_3_L1D_acc_level_6 0
Core_3_L1D_acc_level_7 0
Core_3_L1D_acc_level_8 0
Core_3_L1D_acc_level_9 0

Core_3_L1I_total_access 30474416
Core_3_L1I_total_hit 30060859
Core_3_L1I_total_miss 413557
Core_3_L1I_loads 30474416
Core_3_L1I_load_hit 30060859
Core_3_L1I_load_miss 413557
Core_3_L1I_RFOs 0
Core_3_L1I_RFO_hit 0
Core_3_L1I_RFO_miss 0
Core_3_L1I_prefetches 0
Core_3_L1I_prefetch_hit 0
Core_3_L1I_prefetch_miss 0
Core_3_L1I_writebacks 0
Core_3_L1I_writeback_hit 0
Core_3_L1I_writeback_miss 0
Core_3_L1I_prefetch_requested 0
Core_3_L1I_prefetch_dropped 0
Core_3_L1I_prefetch_issued 0
Core_3_L1I_prefetch_filled 0
Core_3_L1I_prefetch_useful 0
Core_3_L1I_prefetch_useless 0
Core_3_L1I_prefetch_late 0
Core_3_L1I_average_miss_latency 104.78040

Core_3_L1I_rq_access 160605044
Core_3_L1I_rq_forward 0
Core_3_L1I_rq_merged 127758395
Core_3_L1I_rq_to_cache 32846649
Core_3_L1I_rq_full 0

Core_3_L1I_wq_access 0
Core_3_L1I_wq_forward 0
Core_3_L1I_wq_merged 0
Core_3_L1I_wq_to_cache 0
Core_3_L1I_wq_full 0

Core_3_L1I_pq_access 0
Core_3_L1I_pq_forward 0
Core_3_L1I_pq_merged 0
Core_3_L1I_pq_to_cache 0
Core_3_L1I_pq_full 0

Core_3_L1I_acc_epochs 206930
Core_3_L1I_acc_level_0 206930
Core_3_L1I_acc_level_1 0
Core_3_L1I_acc_level_2 0
Core_3_L1I_acc_level_3 0
Core_3_L1I_acc_level_4 0
Core_3_L1I_acc_level_5 0
Core_3_L1I_acc_level_6 0
Core_3_L1I_acc_level_7 0
Core_3_L1I_acc_level_8 0
Core_3_L1I_acc_level_9 0

Core_3_L2C_total_access 2433275
Core_3_L2C_total_hit 933128
Core_3_L2C_total_miss 1500147
Core_3_L2C_loads 1615298
Core_3_L2C_load_hit 356609
Core_3_L2C_load_miss 1258689
Core_3_L2C_RFOs 147612
Core_3_L2C_RFO_hit 23728
Core_3_L2C_RFO_miss 123884
Core_3_L2C_prefetches 287612
Core_3_L2C_prefetch_hit 172169
Core_3_L2C_prefetch_miss 115443
Core_3_L2C_writebacks 382753
Core_3_L2C_writeback_hit 380622
Core_3_L2C_writeback_miss 2131
Core_3_L2C_prefetch_requested 3852499
Core_3_L2C_prefetch_dropped 5
Core_3_L2C_prefetch_issued 3852494
Core_3_L2C_prefetch_filled 196810
Core_3_L2C_prefetch_useful 175755
Core_3_L2C_prefetch_useless 21030
Core_3_L2C_prefetch_late 79859
Core_3_L2C_average_miss_latency 153.05935

Core_3_L2C_rq_access 1880910
Core_3_L2C_rq_forward 0
Core_3_L2C_rq_merged 0
Core_3_L2C_rq_to_cache 1880862
Core_3_L2C_rq_full 0

Core_3_L2C_wq_access 409196
Core_3_L2C_wq_forward 48
Core_3_L2C_wq_merged 0
Core_3_L2C_wq_to_cache 409196
Core_3_L2C_wq_full 0

Core_3_L2C_pq_access 3852494
Core_3_L2C_pq_forward 0
Core_3_L2C_pq_merged 465183
Core_3_L2C_pq_to_cache 3387311
Core_3_L2C_pq_full 0

Core_3_L2C_acc_epochs 206930
Core_3_L2C_acc_level_0 107735
Core_3_L2C_acc_level_1 16686
Core_3_L2C_acc_level_2 15094
Core_3_L2C_acc_level_3 10719
Core_3_L2C_acc_level_4 5322
Core_3_L2C_acc_level_5 14690
Core_3_L2C_acc_level_6 8777
Core_3_L2C_acc_level_7 6043
Core_3_L2C_acc_level_8 4946
Core_3_L2C_acc_level_9 16918

Core_3_LLC_total_access 3161998
Core_3_LLC_total_hit 1811640
Core_3_LLC_total_miss 1350358
Core_3_LLC_loads 1185629
Core_3_LLC_load_hit 638338
Core_3_LLC_load_miss 547291
Core_3_LLC_RFOs 123883
Core_3_LLC_RFO_hit 31856
Core_3_LLC_RFO_miss 92027
Core_3_LLC_prefetches 1505232
Core_3_LLC_prefetch_hit 830510
Core_3_LLC_prefetch_miss 674722
Core_3_LLC_writebacks 347254
Core_3_LLC_writeback_hit 310936
Core_3_LLC_writeback_miss 36318
Core_3_LLC_prefetch_requested 0
Core_3_LLC_prefetch_dropped 0
Core_3_LLC_prefetch_issued 0
Core_3_LLC_prefetch_filled 4165442
Core_3_LLC_prefetch_useful 1555779
Core_3_LLC_prefetch_useless 2573396
Core_3_LLC_prefetch_late 112912
Core_3_LLC_average_miss_latency 882.70952

Core_3_LLC_rq_access 5705192
Core_3_LLC_rq_forward 0
Core_3_LLC_rq_merged 0
Core_3_LLC_rq_to_cache 5705179
Core_3_LLC_rq_full 0

Core_3_LLC_wq_access 1511177
Core_3_LLC_wq_forward 15
Core_3_LLC_wq_merged 0
Core_3_LLC_wq_to_cache 1511177
Core_3_LLC_wq_full 0

Core_3_LLC_pq_access 11823646
Core_3_LLC_pq_forward 0
Core_3_LLC_pq_merged 628284
Core_3_LLC_pq_to_cache 11195360
Core_3_LLC_pq_full 0

Core_3_LLC_acc_epochs 457593
Core_3_LLC_acc_level_0 6815
Core_3_LLC_acc_level_1 37708
Core_3_LLC_acc_level_2 89853
Core_3_LLC_acc_level_3 103456
Core_3_LLC_acc_level_4 84542
Core_3_LLC_acc_level_5 52890
Core_3_LLC_acc_level_6 33132
Core_3_LLC_acc_level_7 18373
Core_3_LLC_acc_level_8 10033
Core_3_LLC_acc_level_9 20791

Core_3_major_page_fault 0
Core_3_minor_page_fault 44691

spp.pref.total 3741568
spp.pref.at_L2 346821
spp.pref.at_LLC 3394747

spp.depth.max 10
spp.depth.min 0
spp.depth.avg 1

spp.breadth.max 2
spp.breadth.min 0
spp.breadth.avg 0

delta_1 3757497
delta_3 16217
delta_-2 15018
delta_-3 2908
delta_5 2551
delta_7 1621
delta_2 1601
delta_-1 989
delta_-9 503
delta_26 482
delta_4 437
delta_-12 369
delta_19 369
delta_-7 358
delta_-5 347
delta_-17 283
delta_-4 271
delta_-6 271
delta_23 219
delta_25 209
delta_18 202
delta_9 128
delta_-18 125
delta_-19 117
delta_38 94
delta_39 57
delta_-11 46
delta_-10 44
delta_32 40
delta_22 24
delta_-15 22
delta_28 18
delta_29 17
delta_13 13
delta_-8 12
delta_40 11
delta_8 10
delta_20 10
delta_-14 9
delta_6 7
delta_16 5
delta_-41 4
delta_-24 4
delta_11 3
delta_24 2
delta_-16 2
delta_15 1
delta_-26 1
delta_-21 1

depth_1_delta_1 1595073
depth_1_delta_-2 7784
depth_1_delta_3 7322
depth_1_delta_-3 2399
depth_1_delta_2 1601
depth_1_delta_5 1478
depth_1_delta_7 1281
depth_1_delta_-1 987
depth_1_delta_-9 503
depth_1_delta_26 482
depth_1_delta_4 437
depth_1_delta_-12 369
depth_1_delta_19 369
depth_1_delta_-7 358
depth_1_delta_-5 347
depth_1_delta_-17 278
depth_1_delta_-4 271
depth_1_delta_-6 270
depth_1_delta_23 219
depth_1_delta_25 209
depth_1_delta_18 202
depth_1_delta_9 128
depth_1_delta_-18 125
depth_1_delta_-19 117
depth_1_delta_38 94
depth_1_delta_39 57
depth_1_delta_-11 46
depth_1_delta_-10 44
depth_1_delta_32 40
depth_1_delta_22 24
depth_1_delta_-15 22
depth_1_delta_28 18
depth_1_delta_29 17
depth_1_delta_13 13
depth_1_delta_-8 12
depth_1_delta_40 11
depth_1_delta_8 10
depth_1_delta_20 10
depth_1_delta_-14 9
depth_1_delta_6 7
depth_1_delta_16 5
depth_1_delta_-41 4
depth_1_delta_-24 4
depth_1_delta_11 3
depth_1_delta_24 2
depth_1_delta_-16 2
depth_1_delta_15 1
depth_1_delta_-26 1
depth_1_delta_-21 1
depth_2_delta_1 745759
depth_2_delta_-2 7234
depth_2_delta_3 5579
depth_2_delta_5 683
depth_2_delta_-3 413
depth_2_delta_7 277
depth_2_delta_-17 5
depth_2_delta_-1 2
depth_2_delta_-6 1
depth_3_delta_1 556679
depth_3_delta_3 3316
depth_3_delta_5 347
depth_3_delta_-3 81
depth_3_delta_7 50
depth_4_delta_1 365695
depth_4_delta_5 34
depth_4_delta_-3 15
depth_4_delta_7 11
depth_5_delta_1 223625
depth_5_delta_5 8
depth_5_delta_7 2
depth_6_delta_1 138672
depth_6_delta_5 1
depth_7_delta_1 77966
depth_8_delta_1 34663
depth_9_delta_1 16966
depth_10_delta_1 2399

spp.pref.total 4399213
spp.pref.at_L2 347214
spp.pref.at_LLC 4051999

spp.depth.max 10
spp.depth.min 0
spp.depth.avg 1

spp.breadth.max 2
spp.breadth.min 0
spp.breadth.avg 0

delta_1 4523734
delta_3 16535
delta_-2 13920
delta_-1 3432
delta_20 3378
delta_-3 2922
delta_5 2906
delta_7 2663
delta_2 2575
delta_-5 1443
delta_4 1400
delta_18 864
delta_-4 739
delta_11 496
delta_-9 467
delta_19 394
delta_10 374
delta_13 362
delta_-7 232
delta_-48 203
delta_23 202
delta_-12 198
delta_-17 182
delta_8 175
delta_28 144
delta_-8 134
delta_-6 133
delta_6 129
delta_-32 122
delta_-16 92
delta_-14 76
delta_17 64
delta_-19 62
delta_-22 62
delta_-13 56
delta_9 54
delta_-11 52
delta_-24 40
delta_-26 31
delta_-10 29
delta_32 28
delta_-18 26
delta_14 23
delta_26 22
delta_22 17
delta_12 15
delta_44 15
delta_36 10
delta_15 3
delta_-35 3
delta_-44 3
delta_-43 3
delta_21 2
delta_-33 1
delta_50 1
delta_58 1
delta_-15 1

depth_1_delta_1 2121818
depth_1_delta_3 7541
depth_1_delta_-2 7455
depth_1_delta_20 3366
depth_1_delta_2 2573
depth_1_delta_-3 2346
depth_1_delta_7 2294
depth_1_delta_-1 2273
depth_1_delta_5 1739
depth_1_delta_4 1384
depth_1_delta_-5 1224
depth_1_delta_18 758
depth_1_delta_-4 722
depth_1_delta_11 496
depth_1_delta_-9 467
depth_1_delta_19 390
depth_1_delta_10 374
depth_1_delta_13 352
depth_1_delta_-7 232
depth_1_delta_-48 203
depth_1_delta_23 202
depth_1_delta_-12 198
depth_1_delta_-17 179
depth_1_delta_8 175
depth_1_delta_28 144
depth_1_delta_-8 134
depth_1_delta_-6 133
depth_1_delta_6 129
depth_1_delta_-32 122
depth_1_delta_-16 89
depth_1_delta_-14 75
depth_1_delta_-19 62
depth_1_delta_-22 62
depth_1_delta_17 59
depth_1_delta_-13 56
depth_1_delta_9 54
depth_1_delta_-11 52
depth_1_delta_-24 40
depth_1_delta_-26 31
depth_1_delta_-10 29
depth_1_delta_32 28
depth_1_delta_-18 26
depth_1_delta_14 23
depth_1_delta_26 22
depth_1_delta_22 17
depth_1_delta_12 15
depth_1_delta_44 15
depth_1_delta_36 10
depth_1_delta_15 3
depth_1_delta_-35 3
depth_1_delta_-44 3
depth_1_delta_-43 3
depth_1_delta_21 2
depth_1_delta_-33 1
depth_1_delta_50 1
depth_1_delta_58 1
depth_1_delta_-15 1
depth_2_delta_1 936690
depth_2_delta_-2 6465
depth_2_delta_3 5337
depth_2_delta_5 728
depth_2_delta_-1 499
depth_2_delta_-3 475
depth_2_delta_7 294
depth_2_delta_-5 162
depth_2_delta_18 104
depth_2_delta_-4 17
depth_2_delta_4 16
depth_2_delta_20 12
depth_2_delta_13 10
depth_2_delta_17 5
depth_2_delta_19 4
depth_2_delta_-17 3
depth_2_delta_-16 3
depth_2_delta_2 2
depth_2_delta_-14 1
depth_3_delta_1 599516
depth_3_delta_3 3657
depth_3_delta_5 363
depth_3_delta_-1 335
depth_3_delta_-3 90
depth_3_delta_7 68
depth_3_delta_-5 57
depth_3_delta_18 1
depth_4_delta_1 386547
depth_4_delta_-1 224
depth_4_delta_5 63
depth_4_delta_-3 11
depth_4_delta_7 5
depth_4_delta_18 1
depth_5_delta_1 227462
depth_5_delta_-1 56
depth_5_delta_5 10
depth_5_delta_7 2
depth_6_delta_1 134317
depth_6_delta_-1 35
depth_6_delta_5 3
depth_7_delta_1 72757
depth_7_delta_-1 10
depth_8_delta_1 29583
depth_9_delta_1 13483
depth_10_delta_1 1561

spp.pref.total 3829384
spp.pref.at_L2 335054
spp.pref.at_LLC 3494330

spp.depth.max 10
spp.depth.min 0
spp.depth.avg 1

spp.breadth.max 2
spp.breadth.min 0
spp.breadth.avg 0

delta_1 3854879
delta_3 20885
delta_-2 18489
delta_23 4259
delta_-3 3366
delta_5 3106
delta_2 1785
delta_26 1664
delta_7 1636
delta_-27 1363
delta_-1 1306
delta_6 1060
delta_-16 689
delta_-17 566
delta_-9 540
delta_19 396
delta_4 344
delta_-5 290
delta_-12 280
delta_-4 274
delta_-7 258
delta_-6 235
delta_-24 223
delta_18 198
delta_9 124
delta_24 114
delta_8 101
delta_-19 93
delta_22 89
delta_-23 88
delta_32 87
delta_-11 71
delta_20 70
delta_-42 45
delta_-15 34
delta_-8 32
delta_14 26
delta_-18 22
delta_13 20
delta_-22 18
delta_11 16
delta_16 9
delta_-14 6
delta_30 3
delta_-10 2
delta_-21 1
delta_15 1
delta_-49 1
delta_10 1
delta_12 1

depth_1_delta_1 1585237
depth_1_delta_-2 9969
depth_1_delta_3 9088
depth_1_delta_23 4201
depth_1_delta_-3 2668
depth_1_delta_2 1784
depth_1_delta_5 1712
depth_1_delta_26 1659
depth_1_delta_-27 1363
depth_1_delta_-1 1302
depth_1_delta_7 1221
depth_1_delta_6 1060
depth_1_delta_-16 686
depth_1_delta_-17 552
depth_1_delta_-9 540
depth_1_delta_19 396
depth_1_delta_4 333
depth_1_delta_-5 290
depth_1_delta_-12 280
depth_1_delta_-7 258
depth_1_delta_-4 256
depth_1_delta_-6 235
depth_1_delta_18 198
depth_1_delta_9 124
depth_1_delta_24 114
depth_1_delta_-24 110
depth_1_delta_8 100
depth_1_delta_-19 91
depth_1_delta_22 89
depth_1_delta_-23 88
depth_1_delta_32 87
depth_1_delta_-11 71
depth_1_delta_20 70
depth_1_delta_-42 45
depth_1_delta_-15 34
depth_1_delta_-8 32
depth_1_delta_14 26
depth_1_delta_-18 22
depth_1_delta_13 20
depth_1_delta_-22 18
depth_1_delta_11 16
depth_1_delta_16 9
depth_1_delta_-14 6
depth_1_delta_30 3
depth_1_delta_-10 2
depth_1_delta_-21 1
depth_1_delta_15 1
depth_1_delta_-49 1
depth_1_delta_10 1
depth_1_delta_12 1
depth_2_delta_1 789890
depth_2_delta_-2 8520
depth_2_delta_3 7084
depth_2_delta_5 838
depth_2_delta_-3 542
depth_2_delta_7 309
depth_2_delta_-24 113
depth_2_delta_23 58
depth_2_delta_-4 18
depth_2_delta_-17 14
depth_2_delta_4 11
depth_2_delta_26 5
depth_2_delta_-1 4
depth_2_delta_-16 3
depth_2_delta_-19 2
depth_2_delta_2 1
depth_2_delta_8 1
depth_3_delta_1 567469
depth_3_delta_3 4713
depth_3_delta_5 473
depth_3_delta_-3 128
depth_3_delta_7 85
depth_4_delta_1 394375
depth_4_delta_5 71
depth_4_delta_-3 28
depth_4_delta_7 16
depth_5_delta_1 241490
depth_5_delta_5 12
depth_5_delta_7 5
depth_6_delta_1 145097
depth_7_delta_1 79577
depth_8_delta_1 33679
depth_9_delta_1 15932
depth_10_delta_1 2133

spp.pref.total 3852499
spp.pref.at_L2 354946
spp.pref.at_LLC 3497553

spp.depth.max 10
spp.depth.min 0
spp.depth.avg 1

spp.breadth.max 2
spp.breadth.min 0
spp.breadth.avg 0

delta_1 3889350
delta_3 12459
delta_-2 9984
delta_11 8047
delta_-1 5560
delta_-5 4141
delta_4 4053
delta_-4 3698
delta_-6 3653
delta_5 2822
delta_-3 2734
delta_8 2656
delta_2 2403
delta_7 1766
delta_-15 1145
delta_9 1130
delta_-11 855
delta_15 753
delta_6 472
delta_-9 469
delta_-16 438
delta_19 361
delta_-12 263
delta_23 240
delta_18 239
delta_-7 191
delta_-17 188
delta_22 135
delta_-20 109
delta_-19 85
delta_-8 78
delta_32 67
delta_-13 42
delta_26 32
delta_-46 19
delta_-14 18
delta_12 17
delta_-18 15
delta_29 11
delta_-22 8
delta_-10 8
delta_49 7
delta_17 5
delta_10 4
delta_31 4
delta_13 4
delta_20 3
delta_55 3
delta_24 3
delta_16 2

depth_1_delta_1 1621676
depth_1_delta_11 8033
depth_1_delta_3 5534
depth_1_delta_-2 5247
depth_1_delta_-4 3677
depth_1_delta_-5 3480
depth_1_delta_-1 2961
depth_1_delta_8 2651
depth_1_delta_2 2305
depth_1_delta_-3 2294
depth_1_delta_4 1846
depth_1_delta_-6 1742
depth_1_delta_5 1654
depth_1_delta_7 1490
depth_1_delta_-9 469
depth_1_delta_-11 461
depth_1_delta_-16 438
depth_1_delta_9 412
depth_1_delta_15 383
depth_1_delta_19 361
depth_1_delta_-15 334
depth_1_delta_6 294
depth_1_delta_-12 262
depth_1_delta_23 240
depth_1_delta_18 239
depth_1_delta_-7 191
depth_1_delta_-17 185
depth_1_delta_22 135
depth_1_delta_-20 88
depth_1_delta_-19 85
depth_1_delta_32 67
depth_1_delta_-8 66
depth_1_delta_-13 38
depth_1_delta_26 32
depth_1_delta_-46 19
depth_1_delta_-14 18
depth_1_delta_12 17
depth_1_delta_-18 15
depth_1_delta_29 11
depth_1_delta_-10 8
depth_1_delta_-22 8
depth_1_delta_49 7
depth_1_delta_17 5
depth_1_delta_10 4
depth_1_delta_31 4
depth_1_delta_13 4
depth_1_delta_24 3
depth_1_delta_20 3
depth_1_delta_55 3
depth_1_delta_16 2
depth_2_delta_1 815786
depth_2_delta_-2 4737
depth_2_delta_3 3953
depth_2_delta_-1 1323
depth_2_delta_4 1202
depth_2_delta_-6 1179
depth_2_delta_5 767
depth_2_delta_-5 661
depth_2_delta_-3 346
depth_2_delta_15 319
depth_2_delta_-11 284
depth_2_delta_9 279
depth_2_delta_-15 278
depth_2_delta_7 211
depth_2_delta_6 131
depth_2_delta_2 98
depth_2_delta_-20 21
depth_2_delta_-4 21
depth_2_delta_11 14
depth_2_delta_-8 12
depth_2_delta_8 5
depth_2_delta_-13 4
depth_2_delta_-17 3
depth_2_delta_-12 1
depth_3_delta_1 582572
depth_3_delta_3 2972
depth_3_delta_4 770
depth_3_delta_-1 741
depth_3_delta_-6 665
depth_3_delta_5 352
depth_3_delta_9 268
depth_3_delta_-15 265
depth_3_delta_-11 110
depth_3_delta_-3 77
depth_3_delta_7 57
depth_3_delta_15 48
depth_3_delta_6 47
depth_4_delta_1 385405
depth_4_delta_-1 389
depth_4_delta_-15 245
depth_4_delta_4 205
depth_4_delta_9 143
depth_4_delta_-6 64
depth_4_delta_5 47
depth_4_delta_-3 17
depth_4_delta_7 6
depth_4_delta_15 3
depth_5_delta_1 224373
depth_5_delta_-1 125
depth_5_delta_4 30
depth_5_delta_9 26
depth_5_delta_-15 22
depth_5_delta_-6 3
depth_5_delta_7 2
depth_5_delta_5 2
depth_6_delta_1 136324
depth_6_delta_-1 21
depth_6_delta_9 2
depth_6_delta_-15 1
depth_7_delta_1 74335
depth_8_delta_1 31557
depth_9_delta_1 15254
depth_10_delta_1 2068

Channel_0_RQ_row_buffer_hit 185105
Channel_0_RQ_row_buffer_miss 2708130
Channel_0_WQ_row_buffer_hit 121327
Channel_0_WQ_row_buffer_miss 527657
Channel_0_WQ_full 0
Channel_0_dbus_congested 867856

Channel_1_RQ_row_buffer_hit 183816
Channel_1_RQ_row_buffer_miss 2717450
Channel_1_WQ_row_buffer_hit 122322
Channel_1_WQ_row_buffer_miss 525209
Channel_1_WQ_full 0
Channel_1_dbus_congested 864401

avg_congested_cycle 9

DRAM_bw_pochs 1830370
DRAM_bw_level_0 1557684
DRAM_bw_level_1 232043
DRAM_bw_level_2 30649
DRAM_bw_level_3 9994
