*************************************************
   ChampSim Multicore Out-of-Order Simulator
   Last compiled: Mar 31 2025 20:14:32
*************************************************
parsing config file: /data3/config/bingo.ini

trace_0 /data3/CASSANDRA/traces/cassandra_phase5_core0.trace.xz
trace_1 /data3/CASSANDRA/traces/cassandra_phase5_core1.trace.xz
trace_2 /data3/CASSANDRA/traces/cassandra_phase5_core2.trace.xz
trace_3 /data3/CASSANDRA/traces/cassandra_phase5_core3.trace.xz
adding L2C_PREFETCHER: Bingo
adding L2C_PREFETCHER: Bingo
adding L2C_PREFETCHER: Bingo
adding L2C_PREFETCHER: Bingo
Initialize SHIP state
warmup_instructions 50000000
simulation_instructions 150000000
champsim_seed 8762
measure_ipc 0
measure_ipc_epoch 1000
measure_dram_bw 1
measure_dram_bw_epoch 256
measure_cache_acc 1
measure_cache_acc_epoch 1024
l1d_perfect 0
l2c_perfect 0
llc_perfect 0
l1d_semi_perfect 0
l2c_semi_perfect 0
llc_semi_perfect 0
semi_perfect_cache_page_buffer_size 64

num_cpus 4
cpu_freq 4000
dram_io_freq 2400
page_size 4096
block_size 64
max_read_per_cycle 8
max_fill_per_cycle 1
dram_channels 2
log2_dram_channels 1
dram_ranks 1
dram_banks 8
dram_rows 65536
dram_columns 128
dram_row_size 8
dram_size 8192
dram_pages 2097152

fetch_width 6
decode_width 6
exec_width 4
lq_width 2
sq_width 2
retire_width 4
scheduler_size 128
branch_mispredict_penalty 20
rob_size 256
lq_size 72
sq_size 56
num_instr_destinations_sparc 4
num_instr_destinations 2
num_instr_sources 4

itlb_set 16
itlb_way 8
itlb_rq_size 16
itlb_wq_size 16
itlb_pq_size 0
itlb_mshr_size 8
itlb_latency 1

dtlb_set 16
dtlb_way 4
dtlb_rq_size 16
dtlb_wq_size 16
dtlb_pq_size 0
dtlb_mshr_size 8
dtlb_latency 1

stlb_set 128
stlb_way 12
stlb_rq_size 32
stlb_wq_size 32
stlb_pq_size 0
stlb_mshr_size 16
stlb_latency 8

l1i_size 32
l1i_set 64
l1i_way 8
l1i_rq_size 64
l1i_wq_size 64
l1i_pq_size 8
l1i_mshr_size 8
l1i_latency 1

l1d_size 32
l1d_set 64
l1d_way 8
l1d_rq_size 64
l1d_wq_size 64
l1d_pq_size 8
l1d_mshr_size 16
l1d_latency 4

l2c_size 256
l2c_set 512
l2c_way 8
l2c_rq_size 32
l2c_wq_size 32
l2c_pq_size 32
l2c_mshr_size 32
l2c_latency 10

llc_size 8192
llc_set 8192
llc_way 16
llc_rq_size 128
llc_wq_size 128
llc_pq_size 128
llc_mshr_size 256
llc_latency 20

dram_channel_width 8
dram_wq_size 64
dram_rq_size 64
tRP 15
tRCD 15
tCAS 12.5
dram_dbus_turn_around_time 30
dram_write_high_wm 56
dram_write_low_wm 48
min_dram_writes_per_switch 16
dram_mtps 2400
dram_dbus_return_time 13

bingo_region_size 2048
bingo_pattern_len 32
bingo_pc_width 16
bingo_min_addr_width 5
bingo_max_addr_width 16
bingo_ft_size 64
bingo_at_size 128
bingo_pht_size 4096
bingo_pht_ways 16
bingo_pf_streamer_size 128
bingo_debug_level 0
bingo_l1d_thresh 1.01
bingo_l2c_thresh 0.8
bingo_llc_thresh 0.05
bingo_pc_address_fill_level L2


Heartbeat CPU  1 instructions:    1000001 cycles:     371894 heartbeat IPC: 2.68894 cumulative IPC: 2.68894 (Simulation time: 0 hr 0 min 6 sec) 
Heartbeat CPU  3 instructions:    1000002 cycles:     395042 heartbeat IPC: 2.53138 cumulative IPC: 2.53138 (Simulation time: 0 hr 0 min 6 sec) 
Heartbeat CPU  2 instructions:    1000000 cycles:     466845 heartbeat IPC: 2.14204 cumulative IPC: 2.14204 (Simulation time: 0 hr 0 min 7 sec) 
Heartbeat CPU  0 instructions:    1000003 cycles:     522647 heartbeat IPC: 1.91334 cumulative IPC: 1.91334 (Simulation time: 0 hr 0 min 8 sec) 
Heartbeat CPU  1 instructions:    2000003 cycles:     683873 heartbeat IPC: 3.20535 cumulative IPC: 2.92452 (Simulation time: 0 hr 0 min 11 sec) 
Heartbeat CPU  3 instructions:    2000003 cycles:     724874 heartbeat IPC: 3.03185 cumulative IPC: 2.75910 (Simulation time: 0 hr 0 min 11 sec) 
Heartbeat CPU  0 instructions:    2000000 cycles:     874548 heartbeat IPC: 2.84170 cumulative IPC: 2.28690 (Simulation time: 0 hr 0 min 14 sec) 
Heartbeat CPU  2 instructions:    2000001 cycles:     939587 heartbeat IPC: 2.11532 cumulative IPC: 2.12860 (Simulation time: 0 hr 0 min 15 sec) 
Heartbeat CPU  1 instructions:    3000000 cycles:    1034785 heartbeat IPC: 2.84971 cumulative IPC: 2.89915 (Simulation time: 0 hr 0 min 16 sec) 
Heartbeat CPU  3 instructions:    3000003 cycles:    1093499 heartbeat IPC: 2.71278 cumulative IPC: 2.74349 (Simulation time: 0 hr 0 min 17 sec) 
Heartbeat CPU  0 instructions:    3000001 cycles:    1199852 heartbeat IPC: 3.07405 cumulative IPC: 2.50031 (Simulation time: 0 hr 0 min 19 sec) 
Heartbeat CPU  1 instructions:    4000000 cycles:    1359756 heartbeat IPC: 3.07720 cumulative IPC: 2.94170 (Simulation time: 0 hr 0 min 22 sec) 
Heartbeat CPU  2 instructions:    3000002 cycles:    1377925 heartbeat IPC: 2.28135 cumulative IPC: 2.17719 (Simulation time: 0 hr 0 min 22 sec) 
Heartbeat CPU  3 instructions:    4000000 cycles:    1423416 heartbeat IPC: 3.03106 cumulative IPC: 2.81014 (Simulation time: 0 hr 0 min 23 sec) 
Heartbeat CPU  0 instructions:    4000000 cycles:    1528491 heartbeat IPC: 3.04285 cumulative IPC: 2.61696 (Simulation time: 0 hr 0 min 25 sec) 
Heartbeat CPU  1 instructions:    5000003 cycles:    1684324 heartbeat IPC: 3.08103 cumulative IPC: 2.96855 (Simulation time: 0 hr 0 min 28 sec) 
Heartbeat CPU  2 instructions:    4000000 cycles:    1705501 heartbeat IPC: 3.05272 cumulative IPC: 2.34535 (Simulation time: 0 hr 0 min 28 sec) 
Heartbeat CPU  0 instructions:    5000003 cycles:    1900943 heartbeat IPC: 2.68492 cumulative IPC: 2.63028 (Simulation time: 0 hr 0 min 31 sec) 
Heartbeat CPU  3 instructions:    5000001 cycles:    1933072 heartbeat IPC: 1.96211 cumulative IPC: 2.58656 (Simulation time: 0 hr 0 min 32 sec) 
Heartbeat CPU  1 instructions:    6000003 cycles:    2019969 heartbeat IPC: 2.97934 cumulative IPC: 2.97034 (Simulation time: 0 hr 0 min 33 sec) 
Heartbeat CPU  2 instructions:    5000003 cycles:    2090316 heartbeat IPC: 2.59866 cumulative IPC: 2.39198 (Simulation time: 0 hr 0 min 34 sec) 
Heartbeat CPU  0 instructions:    6000001 cycles:    2229722 heartbeat IPC: 3.04155 cumulative IPC: 2.69092 (Simulation time: 0 hr 0 min 36 sec) 
Heartbeat CPU  3 instructions:    6000003 cycles:    2256624 heartbeat IPC: 3.09070 cumulative IPC: 2.65884 (Simulation time: 0 hr 0 min 37 sec) 
Heartbeat CPU  2 instructions:    6000002 cycles:    2461380 heartbeat IPC: 2.69495 cumulative IPC: 2.43766 (Simulation time: 0 hr 0 min 40 sec) 
Heartbeat CPU  1 instructions:    7000003 cycles:    2539969 heartbeat IPC: 1.92308 cumulative IPC: 2.75594 (Simulation time: 0 hr 0 min 41 sec) 
Heartbeat CPU  3 instructions:    7000001 cycles:    2640745 heartbeat IPC: 2.60334 cumulative IPC: 2.65077 (Simulation time: 0 hr 0 min 43 sec) 
Heartbeat CPU  0 instructions:    7000002 cycles:    2674368 heartbeat IPC: 2.24898 cumulative IPC: 2.61744 (Simulation time: 0 hr 0 min 43 sec) 
Heartbeat CPU  2 instructions:    7000000 cycles:    2814583 heartbeat IPC: 2.83123 cumulative IPC: 2.48705 (Simulation time: 0 hr 0 min 45 sec) 
Heartbeat CPU  3 instructions:    8000000 cycles:    2975420 heartbeat IPC: 2.98797 cumulative IPC: 2.68870 (Simulation time: 0 hr 0 min 48 sec) 
Heartbeat CPU  1 instructions:    8000000 cycles:    2983994 heartbeat IPC: 2.25212 cumulative IPC: 2.68097 (Simulation time: 0 hr 0 min 48 sec) 
Heartbeat CPU  0 instructions:    8000000 cycles:    3005097 heartbeat IPC: 3.02362 cumulative IPC: 2.66214 (Simulation time: 0 hr 0 min 48 sec) 
Heartbeat CPU  2 instructions:    8000000 cycles:    3142693 heartbeat IPC: 3.04776 cumulative IPC: 2.54559 (Simulation time: 0 hr 0 min 50 sec) 
Heartbeat CPU  3 instructions:    9000002 cycles:    3303568 heartbeat IPC: 3.04741 cumulative IPC: 2.72433 (Simulation time: 0 hr 0 min 53 sec) 
Heartbeat CPU  0 instructions:    9000001 cycles:    3439789 heartbeat IPC: 2.30048 cumulative IPC: 2.61644 (Simulation time: 0 hr 0 min 55 sec) 
Heartbeat CPU  1 instructions:    9000000 cycles:    3458658 heartbeat IPC: 2.10675 cumulative IPC: 2.60217 (Simulation time: 0 hr 0 min 55 sec) 
Heartbeat CPU  2 instructions:    9000003 cycles:    3512969 heartbeat IPC: 2.70070 cumulative IPC: 2.56194 (Simulation time: 0 hr 0 min 56 sec) 
Heartbeat CPU  3 instructions:   10000001 cycles:    3669828 heartbeat IPC: 2.73030 cumulative IPC: 2.72492 (Simulation time: 0 hr 0 min 59 sec) 
Heartbeat CPU  0 instructions:   10000003 cycles:    3763174 heartbeat IPC: 3.09230 cumulative IPC: 2.65733 (Simulation time: 0 hr 1 min 0 sec) 
Heartbeat CPU  2 instructions:   10000002 cycles:    3899488 heartbeat IPC: 2.58719 cumulative IPC: 2.56444 (Simulation time: 0 hr 1 min 2 sec) 
Heartbeat CPU  1 instructions:   10000001 cycles:    3937421 heartbeat IPC: 2.08872 cumulative IPC: 2.53973 (Simulation time: 0 hr 1 min 3 sec) 
Heartbeat CPU  3 instructions:   11000001 cycles:    4084488 heartbeat IPC: 2.41161 cumulative IPC: 2.69312 (Simulation time: 0 hr 1 min 4 sec) 
Heartbeat CPU  0 instructions:   11000000 cycles:    4200979 heartbeat IPC: 2.28412 cumulative IPC: 2.61844 (Simulation time: 0 hr 1 min 6 sec) 
Heartbeat CPU  2 instructions:   11000001 cycles:    4246443 heartbeat IPC: 2.88222 cumulative IPC: 2.59040 (Simulation time: 0 hr 1 min 7 sec) 
Heartbeat CPU  1 instructions:   11000002 cycles:    4471986 heartbeat IPC: 1.87068 cumulative IPC: 2.45976 (Simulation time: 0 hr 1 min 10 sec) 
Heartbeat CPU  3 instructions:   12000000 cycles:    4549812 heartbeat IPC: 2.14904 cumulative IPC: 2.63747 (Simulation time: 0 hr 1 min 11 sec) 
Heartbeat CPU  2 instructions:   12000000 cycles:    4586668 heartbeat IPC: 2.93923 cumulative IPC: 2.61628 (Simulation time: 0 hr 1 min 12 sec) 
Heartbeat CPU  0 instructions:   12000000 cycles:    4625757 heartbeat IPC: 2.35417 cumulative IPC: 2.59417 (Simulation time: 0 hr 1 min 13 sec) 
Heartbeat CPU  1 instructions:   12000000 cycles:    4777792 heartbeat IPC: 3.27004 cumulative IPC: 2.51162 (Simulation time: 0 hr 1 min 16 sec) 
Heartbeat CPU  3 instructions:   13000000 cycles:    4880118 heartbeat IPC: 3.02750 cumulative IPC: 2.66387 (Simulation time: 0 hr 1 min 17 sec) 
Heartbeat CPU  2 instructions:   13000002 cycles:    4908863 heartbeat IPC: 3.10372 cumulative IPC: 2.64827 (Simulation time: 0 hr 1 min 18 sec) 
Heartbeat CPU  0 instructions:   13000000 cycles:    4957759 heartbeat IPC: 3.01203 cumulative IPC: 2.62215 (Simulation time: 0 hr 1 min 19 sec) 
Heartbeat CPU  1 instructions:   13000001 cycles:    5101949 heartbeat IPC: 3.08493 cumulative IPC: 2.54805 (Simulation time: 0 hr 1 min 21 sec) 
Heartbeat CPU  3 instructions:   14000003 cycles:    5256486 heartbeat IPC: 2.65698 cumulative IPC: 2.66338 (Simulation time: 0 hr 1 min 23 sec) 
Heartbeat CPU  0 instructions:   14000003 cycles:    5294194 heartbeat IPC: 2.97235 cumulative IPC: 2.64441 (Simulation time: 0 hr 1 min 24 sec) 
Heartbeat CPU  2 instructions:   14000002 cycles:    5462558 heartbeat IPC: 1.80605 cumulative IPC: 2.56290 (Simulation time: 0 hr 1 min 26 sec) 
Heartbeat CPU  1 instructions:   14000003 cycles:    5573704 heartbeat IPC: 2.11975 cumulative IPC: 2.51180 (Simulation time: 0 hr 1 min 28 sec) 
Heartbeat CPU  3 instructions:   15000001 cycles:    5577964 heartbeat IPC: 3.11063 cumulative IPC: 2.68915 (Simulation time: 0 hr 1 min 28 sec) 
Heartbeat CPU  0 instructions:   15000003 cycles:    5618808 heartbeat IPC: 3.08058 cumulative IPC: 2.66961 (Simulation time: 0 hr 1 min 29 sec) 
Heartbeat CPU  2 instructions:   15000003 cycles:    5805556 heartbeat IPC: 2.91547 cumulative IPC: 2.58373 (Simulation time: 0 hr 1 min 32 sec) 
Heartbeat CPU  3 instructions:   16000000 cycles:    5961674 heartbeat IPC: 2.60613 cumulative IPC: 2.68381 (Simulation time: 0 hr 1 min 34 sec) 
Heartbeat CPU  0 instructions:   16000000 cycles:    5982232 heartbeat IPC: 2.75160 cumulative IPC: 2.67459 (Simulation time: 0 hr 1 min 35 sec) 
Heartbeat CPU  1 instructions:   15000000 cycles:    6025380 heartbeat IPC: 2.21397 cumulative IPC: 2.48947 (Simulation time: 0 hr 1 min 35 sec) 
Heartbeat CPU  2 instructions:   16000000 cycles:    6126562 heartbeat IPC: 3.11520 cumulative IPC: 2.61158 (Simulation time: 0 hr 1 min 37 sec) 
Heartbeat CPU  3 instructions:   17000002 cycles:    6285743 heartbeat IPC: 3.08577 cumulative IPC: 2.70453 (Simulation time: 0 hr 1 min 40 sec) 
Heartbeat CPU  0 instructions:   17000002 cycles:    6312295 heartbeat IPC: 3.02973 cumulative IPC: 2.69316 (Simulation time: 0 hr 1 min 41 sec) 
Heartbeat CPU  1 instructions:   16000000 cycles:    6358987 heartbeat IPC: 2.99754 cumulative IPC: 2.51612 (Simulation time: 0 hr 1 min 41 sec) 
Heartbeat CPU  2 instructions:   17000000 cycles:    6520721 heartbeat IPC: 2.53705 cumulative IPC: 2.60707 (Simulation time: 0 hr 1 min 44 sec) 
Heartbeat CPU  0 instructions:   18000000 cycles:    6666039 heartbeat IPC: 2.82690 cumulative IPC: 2.70025 (Simulation time: 0 hr 1 min 46 sec) 
Heartbeat CPU  3 instructions:   18000003 cycles:    6678955 heartbeat IPC: 2.54316 cumulative IPC: 2.69503 (Simulation time: 0 hr 1 min 46 sec) 
Heartbeat CPU  1 instructions:   17000001 cycles:    6706161 heartbeat IPC: 2.88040 cumulative IPC: 2.53498 (Simulation time: 0 hr 1 min 47 sec) 
Heartbeat CPU  0 instructions:   19000000 cycles:    6989217 heartbeat IPC: 3.09427 cumulative IPC: 2.71847 (Simulation time: 0 hr 1 min 51 sec) 
Heartbeat CPU  3 instructions:   19000001 cycles:    7045442 heartbeat IPC: 2.72860 cumulative IPC: 2.69678 (Simulation time: 0 hr 1 min 52 sec) 
Heartbeat CPU  2 instructions:   18000000 cycles:    7065377 heartbeat IPC: 1.83602 cumulative IPC: 2.54763 (Simulation time: 0 hr 1 min 52 sec) 
Heartbeat CPU  1 instructions:   18000002 cycles:    7075765 heartbeat IPC: 2.70560 cumulative IPC: 2.54389 (Simulation time: 0 hr 1 min 52 sec) 
Heartbeat CPU  0 instructions:   20000000 cycles:    7340523 heartbeat IPC: 2.84652 cumulative IPC: 2.72460 (Simulation time: 0 hr 1 min 57 sec) 
Heartbeat CPU  3 instructions:   20000000 cycles:    7369097 heartbeat IPC: 3.08971 cumulative IPC: 2.71404 (Simulation time: 0 hr 1 min 57 sec) 
Heartbeat CPU  1 instructions:   19000002 cycles:    7503331 heartbeat IPC: 2.33882 cumulative IPC: 2.53221 (Simulation time: 0 hr 1 min 59 sec) 
Heartbeat CPU  2 instructions:   19000001 cycles:    7506054 heartbeat IPC: 2.26924 cumulative IPC: 2.53129 (Simulation time: 0 hr 1 min 59 sec) 
Heartbeat CPU  0 instructions:   21000001 cycles:    7652063 heartbeat IPC: 3.20986 cumulative IPC: 2.74436 (Simulation time: 0 hr 2 min 1 sec) 
Heartbeat CPU  1 instructions:   20000000 cycles:    7847643 heartbeat IPC: 2.90434 cumulative IPC: 2.54854 (Simulation time: 0 hr 2 min 5 sec) 
Heartbeat CPU  3 instructions:   21000002 cycles:    7859993 heartbeat IPC: 2.03710 cumulative IPC: 2.67176 (Simulation time: 0 hr 2 min 5 sec) 
Heartbeat CPU  2 instructions:   20000000 cycles:    7935017 heartbeat IPC: 2.33120 cumulative IPC: 2.52047 (Simulation time: 0 hr 2 min 6 sec) 
Heartbeat CPU  0 instructions:   22000002 cycles:    8065611 heartbeat IPC: 2.41810 cumulative IPC: 2.72763 (Simulation time: 0 hr 2 min 8 sec) 
Heartbeat CPU  3 instructions:   22000000 cycles:    8185926 heartbeat IPC: 3.06811 cumulative IPC: 2.68754 (Simulation time: 0 hr 2 min 10 sec) 
Heartbeat CPU  2 instructions:   21000002 cycles:    8262596 heartbeat IPC: 3.05270 cumulative IPC: 2.54157 (Simulation time: 0 hr 2 min 11 sec) 
Heartbeat CPU  1 instructions:   21000000 cycles:    8335692 heartbeat IPC: 2.04897 cumulative IPC: 2.51929 (Simulation time: 0 hr 2 min 12 sec) 
Heartbeat CPU  0 instructions:   23000001 cycles:    8485601 heartbeat IPC: 2.38101 cumulative IPC: 2.71047 (Simulation time: 0 hr 2 min 15 sec) 
Heartbeat CPU  2 instructions:   22000003 cycles:    8586744 heartbeat IPC: 3.08501 cumulative IPC: 2.56209 (Simulation time: 0 hr 2 min 16 sec) 
Heartbeat CPU  3 instructions:   23000001 cycles:    8616306 heartbeat IPC: 2.32353 cumulative IPC: 2.66936 (Simulation time: 0 hr 2 min 17 sec) 
Heartbeat CPU  1 instructions:   22000002 cycles:    8662303 heartbeat IPC: 3.06175 cumulative IPC: 2.53974 (Simulation time: 0 hr 2 min 18 sec) 
Heartbeat CPU  0 instructions:   24000000 cycles:    8810159 heartbeat IPC: 3.08111 cumulative IPC: 2.72413 (Simulation time: 0 hr 2 min 20 sec) 
Heartbeat CPU  2 instructions:   23000000 cycles:    8913019 heartbeat IPC: 3.06489 cumulative IPC: 2.58049 (Simulation time: 0 hr 2 min 22 sec) 
Heartbeat CPU  1 instructions:   23000001 cycles:    8983396 heartbeat IPC: 3.11436 cumulative IPC: 2.56028 (Simulation time: 0 hr 2 min 23 sec) 
Heartbeat CPU  0 instructions:   25000003 cycles:    9146271 heartbeat IPC: 2.97521 cumulative IPC: 2.73335 (Simulation time: 0 hr 2 min 25 sec) 
Heartbeat CPU  3 instructions:   24000000 cycles:    9325463 heartbeat IPC: 1.41012 cumulative IPC: 2.57360 (Simulation time: 0 hr 2 min 27 sec) 
Heartbeat CPU  2 instructions:   24000000 cycles:    9335918 heartbeat IPC: 2.36463 cumulative IPC: 2.57072 (Simulation time: 0 hr 2 min 27 sec) 
Heartbeat CPU  1 instructions:   24000000 cycles:    9379140 heartbeat IPC: 2.52688 cumulative IPC: 2.55887 (Simulation time: 0 hr 2 min 28 sec) 
Heartbeat CPU  0 instructions:   26000000 cycles:    9591475 heartbeat IPC: 2.24615 cumulative IPC: 2.71074 (Simulation time: 0 hr 2 min 31 sec) 
Heartbeat CPU  2 instructions:   25000001 cycles:    9657009 heartbeat IPC: 3.11439 cumulative IPC: 2.58879 (Simulation time: 0 hr 2 min 32 sec) 
Heartbeat CPU  1 instructions:   25000000 cycles:    9708556 heartbeat IPC: 3.03568 cumulative IPC: 2.57505 (Simulation time: 0 hr 2 min 33 sec) 
Heartbeat CPU  3 instructions:   25000000 cycles:    9798578 heartbeat IPC: 2.11365 cumulative IPC: 2.55139 (Simulation time: 0 hr 2 min 34 sec) 
Heartbeat CPU  0 instructions:   27000001 cycles:    9952288 heartbeat IPC: 2.77152 cumulative IPC: 2.71294 (Simulation time: 0 hr 2 min 37 sec) 
Heartbeat CPU  2 instructions:   26000003 cycles:    9978238 heartbeat IPC: 3.11305 cumulative IPC: 2.60567 (Simulation time: 0 hr 2 min 37 sec) 
Heartbeat CPU  1 instructions:   26000000 cycles:   10068187 heartbeat IPC: 2.78063 cumulative IPC: 2.58239 (Simulation time: 0 hr 2 min 39 sec) 
Heartbeat CPU  3 instructions:   26000002 cycles:   10283981 heartbeat IPC: 2.06015 cumulative IPC: 2.52820 (Simulation time: 0 hr 2 min 42 sec) 
Heartbeat CPU  0 instructions:   28000000 cycles:   10302499 heartbeat IPC: 2.85542 cumulative IPC: 2.71779 (Simulation time: 0 hr 2 min 43 sec) 
Heartbeat CPU  2 instructions:   27000002 cycles:   10306890 heartbeat IPC: 3.04273 cumulative IPC: 2.61961 (Simulation time: 0 hr 2 min 43 sec) 
Heartbeat CPU  1 instructions:   27000001 cycles:   10502144 heartbeat IPC: 2.30438 cumulative IPC: 2.57090 (Simulation time: 0 hr 2 min 46 sec) 
Heartbeat CPU  0 instructions:   29000000 cycles:   10625354 heartbeat IPC: 3.09737 cumulative IPC: 2.72932 (Simulation time: 0 hr 2 min 48 sec) 
Heartbeat CPU  2 instructions:   28000000 cycles:   10659506 heartbeat IPC: 2.83594 cumulative IPC: 2.62676 (Simulation time: 0 hr 2 min 49 sec) 
Heartbeat CPU  3 instructions:   27000002 cycles:   10678370 heartbeat IPC: 2.53557 cumulative IPC: 2.52848 (Simulation time: 0 hr 2 min 49 sec) 
Heartbeat CPU  1 instructions:   28000000 cycles:   10918430 heartbeat IPC: 2.40219 cumulative IPC: 2.56447 (Simulation time: 0 hr 2 min 52 sec) 
Heartbeat CPU  2 instructions:   29000000 cycles:   10981423 heartbeat IPC: 3.10639 cumulative IPC: 2.64082 (Simulation time: 0 hr 2 min 53 sec) 
Heartbeat CPU  0 instructions:   30000003 cycles:   11103856 heartbeat IPC: 2.08986 cumulative IPC: 2.70176 (Simulation time: 0 hr 2 min 55 sec) 
Heartbeat CPU  3 instructions:   28000000 cycles:   11145146 heartbeat IPC: 2.14235 cumulative IPC: 2.51230 (Simulation time: 0 hr 2 min 56 sec) 
Heartbeat CPU  1 instructions:   29000000 cycles:   11290923 heartbeat IPC: 2.68461 cumulative IPC: 2.56843 (Simulation time: 0 hr 2 min 58 sec) 
Heartbeat CPU  2 instructions:   30000002 cycles:   11302275 heartbeat IPC: 3.11671 cumulative IPC: 2.65433 (Simulation time: 0 hr 2 min 59 sec) 
Heartbeat CPU  0 instructions:   31000003 cycles:   11421241 heartbeat IPC: 3.15075 cumulative IPC: 2.71424 (Simulation time: 0 hr 3 min 1 sec) 
Heartbeat CPU  3 instructions:   29000000 cycles:   11480420 heartbeat IPC: 2.98264 cumulative IPC: 2.52604 (Simulation time: 0 hr 3 min 2 sec) 
Heartbeat CPU  1 instructions:   30000000 cycles:   11617341 heartbeat IPC: 3.06356 cumulative IPC: 2.58235 (Simulation time: 0 hr 3 min 4 sec) 
Heartbeat CPU  2 instructions:   31000000 cycles:   11624649 heartbeat IPC: 3.10198 cumulative IPC: 2.66675 (Simulation time: 0 hr 3 min 4 sec) 
Heartbeat CPU  0 instructions:   32000000 cycles:   11744207 heartbeat IPC: 3.09629 cumulative IPC: 2.72475 (Simulation time: 0 hr 3 min 7 sec) 
Heartbeat CPU  3 instructions:   30000000 cycles:   11811179 heartbeat IPC: 3.02335 cumulative IPC: 2.53997 (Simulation time: 0 hr 3 min 8 sec) 
Heartbeat CPU  1 instructions:   31000003 cycles:   11932412 heartbeat IPC: 3.17390 cumulative IPC: 2.59797 (Simulation time: 0 hr 3 min 9 sec) 
Heartbeat CPU  3 instructions:   31000002 cycles:   12140066 heartbeat IPC: 3.04056 cumulative IPC: 2.55353 (Simulation time: 0 hr 3 min 13 sec) 
Heartbeat CPU  2 instructions:   32000000 cycles:   12141123 heartbeat IPC: 1.93621 cumulative IPC: 2.63567 (Simulation time: 0 hr 3 min 13 sec) 
Heartbeat CPU  0 instructions:   33000003 cycles:   12165208 heartbeat IPC: 2.37530 cumulative IPC: 2.71265 (Simulation time: 0 hr 3 min 13 sec) 
Heartbeat CPU  1 instructions:   32000000 cycles:   12256535 heartbeat IPC: 3.08524 cumulative IPC: 2.61085 (Simulation time: 0 hr 3 min 14 sec) 
Heartbeat CPU  2 instructions:   33000000 cycles:   12530091 heartbeat IPC: 2.57091 cumulative IPC: 2.63366 (Simulation time: 0 hr 3 min 19 sec) 
Heartbeat CPU  3 instructions:   32000000 cycles:   12536578 heartbeat IPC: 2.52199 cumulative IPC: 2.55253 (Simulation time: 0 hr 3 min 19 sec) 
Heartbeat CPU  0 instructions:   34000003 cycles:   12547365 heartbeat IPC: 2.61673 cumulative IPC: 2.70973 (Simulation time: 0 hr 3 min 19 sec) 
Heartbeat CPU  1 instructions:   33000000 cycles:   12592564 heartbeat IPC: 2.97593 cumulative IPC: 2.62059 (Simulation time: 0 hr 3 min 20 sec) 
Heartbeat CPU  3 instructions:   33000001 cycles:   12892426 heartbeat IPC: 2.81019 cumulative IPC: 2.55964 (Simulation time: 0 hr 3 min 25 sec) 
Heartbeat CPU  0 instructions:   35000000 cycles:   12902106 heartbeat IPC: 2.81895 cumulative IPC: 2.71274 (Simulation time: 0 hr 3 min 25 sec) 
Heartbeat CPU  2 instructions:   34000000 cycles:   12928882 heartbeat IPC: 2.50758 cumulative IPC: 2.62977 (Simulation time: 0 hr 3 min 25 sec) 
Heartbeat CPU  1 instructions:   34000000 cycles:   13039267 heartbeat IPC: 2.23862 cumulative IPC: 2.60751 (Simulation time: 0 hr 3 min 27 sec) 
Heartbeat CPU  3 instructions:   34000000 cycles:   13276572 heartbeat IPC: 2.60317 cumulative IPC: 2.56090 (Simulation time: 0 hr 3 min 30 sec) 
Heartbeat CPU  2 instructions:   35000003 cycles:   13285714 heartbeat IPC: 2.80245 cumulative IPC: 2.63441 (Simulation time: 0 hr 3 min 30 sec) 
Heartbeat CPU  0 instructions:   36000000 cycles:   13299626 heartbeat IPC: 2.51560 cumulative IPC: 2.70684 (Simulation time: 0 hr 3 min 30 sec) 
Heartbeat CPU  1 instructions:   35000001 cycles:   13571940 heartbeat IPC: 1.87733 cumulative IPC: 2.57885 (Simulation time: 0 hr 3 min 34 sec) 
Heartbeat CPU  2 instructions:   36000000 cycles:   13658275 heartbeat IPC: 2.68412 cumulative IPC: 2.63576 (Simulation time: 0 hr 3 min 36 sec) 
Heartbeat CPU  3 instructions:   35000000 cycles:   13665535 heartbeat IPC: 2.57094 cumulative IPC: 2.56119 (Simulation time: 0 hr 3 min 36 sec) 
Heartbeat CPU  0 instructions:   37000002 cycles:   13689848 heartbeat IPC: 2.56265 cumulative IPC: 2.70273 (Simulation time: 0 hr 3 min 36 sec) 
Heartbeat CPU  3 instructions:   36000000 cycles:   13999773 heartbeat IPC: 2.99188 cumulative IPC: 2.57147 (Simulation time: 0 hr 3 min 41 sec) 
Heartbeat CPU  1 instructions:   36000000 cycles:   14046148 heartbeat IPC: 2.10878 cumulative IPC: 2.56298 (Simulation time: 0 hr 3 min 41 sec) 
Heartbeat CPU  0 instructions:   38000002 cycles:   14115161 heartbeat IPC: 2.35121 cumulative IPC: 2.69214 (Simulation time: 0 hr 3 min 42 sec) 
Heartbeat CPU  2 instructions:   37000002 cycles:   14140009 heartbeat IPC: 2.07584 cumulative IPC: 2.61669 (Simulation time: 0 hr 3 min 43 sec) 
Heartbeat CPU  3 instructions:   37000000 cycles:   14323305 heartbeat IPC: 3.09088 cumulative IPC: 2.58320 (Simulation time: 0 hr 3 min 45 sec) 
Heartbeat CPU  0 instructions:   39000002 cycles:   14489333 heartbeat IPC: 2.67257 cumulative IPC: 2.69164 (Simulation time: 0 hr 3 min 48 sec) 
Heartbeat CPU  2 instructions:   38000003 cycles:   14559033 heartbeat IPC: 2.38650 cumulative IPC: 2.61006 (Simulation time: 0 hr 3 min 49 sec) 
Heartbeat CPU  3 instructions:   38000000 cycles:   14640404 heartbeat IPC: 3.15359 cumulative IPC: 2.59556 (Simulation time: 0 hr 3 min 50 sec) 
Heartbeat CPU  1 instructions:   37000003 cycles:   14809576 heartbeat IPC: 1.30989 cumulative IPC: 2.49838 (Simulation time: 0 hr 3 min 53 sec) 
Heartbeat CPU  0 instructions:   40000000 cycles:   14813587 heartbeat IPC: 3.08400 cumulative IPC: 2.70022 (Simulation time: 0 hr 3 min 53 sec) 
Heartbeat CPU  2 instructions:   39000003 cycles:   14883672 heartbeat IPC: 3.08034 cumulative IPC: 2.62032 (Simulation time: 0 hr 3 min 54 sec) 
Heartbeat CPU  3 instructions:   39000002 cycles:   14963940 heartbeat IPC: 3.09085 cumulative IPC: 2.60627 (Simulation time: 0 hr 3 min 55 sec) 
Heartbeat CPU  1 instructions:   38000003 cycles:   15132969 heartbeat IPC: 3.09221 cumulative IPC: 2.51107 (Simulation time: 0 hr 3 min 58 sec) 
Heartbeat CPU  0 instructions:   41000001 cycles:   15185757 heartbeat IPC: 2.68695 cumulative IPC: 2.69990 (Simulation time: 0 hr 3 min 59 sec) 
Heartbeat CPU  2 instructions:   40000000 cycles:   15207302 heartbeat IPC: 3.08994 cumulative IPC: 2.63032 (Simulation time: 0 hr 4 min 0 sec) 
Heartbeat CPU  3 instructions:   40000000 cycles:   15288411 heartbeat IPC: 3.08193 cumulative IPC: 2.61636 (Simulation time: 0 hr 4 min 1 sec) 
Heartbeat CPU  1 instructions:   39000003 cycles:   15460801 heartbeat IPC: 3.05034 cumulative IPC: 2.52251 (Simulation time: 0 hr 4 min 4 sec) 
Heartbeat CPU  0 instructions:   42000002 cycles:   15502728 heartbeat IPC: 3.15487 cumulative IPC: 2.70920 (Simulation time: 0 hr 4 min 5 sec) 
Heartbeat CPU  2 instructions:   41000002 cycles:   15626982 heartbeat IPC: 2.38277 cumulative IPC: 2.62367 (Simulation time: 0 hr 4 min 7 sec) 
Heartbeat CPU  3 instructions:   41000003 cycles:   15769032 heartbeat IPC: 2.08065 cumulative IPC: 2.60003 (Simulation time: 0 hr 4 min 9 sec) 
Heartbeat CPU  0 instructions:   43000000 cycles:   15827781 heartbeat IPC: 3.07642 cumulative IPC: 2.71674 (Simulation time: 0 hr 4 min 10 sec) 
Heartbeat CPU  1 instructions:   40000000 cycles:   15859393 heartbeat IPC: 2.50882 cumulative IPC: 2.52216 (Simulation time: 0 hr 4 min 10 sec) 
Heartbeat CPU  2 instructions:   42000000 cycles:   16011018 heartbeat IPC: 2.60392 cumulative IPC: 2.62319 (Simulation time: 0 hr 4 min 13 sec) 
Heartbeat CPU  3 instructions:   42000003 cycles:   16112282 heartbeat IPC: 2.91333 cumulative IPC: 2.60671 (Simulation time: 0 hr 4 min 14 sec) 
Heartbeat CPU  0 instructions:   44000000 cycles:   16151149 heartbeat IPC: 3.09245 cumulative IPC: 2.72426 (Simulation time: 0 hr 4 min 15 sec) 
Heartbeat CPU  1 instructions:   41000003 cycles:   16280389 heartbeat IPC: 2.37533 cumulative IPC: 2.51837 (Simulation time: 0 hr 4 min 17 sec) 
Heartbeat CPU  2 instructions:   43000000 cycles:   16339838 heartbeat IPC: 3.04118 cumulative IPC: 2.63161 (Simulation time: 0 hr 4 min 18 sec) 
Heartbeat CPU  0 instructions:   45000000 cycles:   16475520 heartbeat IPC: 3.08289 cumulative IPC: 2.73132 (Simulation time: 0 hr 4 min 20 sec) 
Heartbeat CPU  3 instructions:   43000000 cycles:   16487712 heartbeat IPC: 2.66360 cumulative IPC: 2.60800 (Simulation time: 0 hr 4 min 21 sec) 
Heartbeat CPU  2 instructions:   44000000 cycles:   16695253 heartbeat IPC: 2.81361 cumulative IPC: 2.63548 (Simulation time: 0 hr 4 min 24 sec) 
Heartbeat CPU  1 instructions:   42000001 cycles:   16726116 heartbeat IPC: 2.24352 cumulative IPC: 2.51104 (Simulation time: 0 hr 4 min 24 sec) 
Heartbeat CPU  0 instructions:   46000001 cycles:   16805387 heartbeat IPC: 3.03153 cumulative IPC: 2.73722 (Simulation time: 0 hr 4 min 26 sec) 
Heartbeat CPU  3 instructions:   44000000 cycles:   16854387 heartbeat IPC: 2.72721 cumulative IPC: 2.61060 (Simulation time: 0 hr 4 min 27 sec) 
Heartbeat CPU  1 instructions:   43000001 cycles:   17077676 heartbeat IPC: 2.84446 cumulative IPC: 2.51791 (Simulation time: 0 hr 4 min 30 sec) 
Heartbeat CPU  2 instructions:   45000000 cycles:   17118035 heartbeat IPC: 2.36529 cumulative IPC: 2.62881 (Simulation time: 0 hr 4 min 31 sec) 
Heartbeat CPU  0 instructions:   47000000 cycles:   17154428 heartbeat IPC: 2.86499 cumulative IPC: 2.73982 (Simulation time: 0 hr 4 min 32 sec) 
Heartbeat CPU  3 instructions:   45000002 cycles:   17178869 heartbeat IPC: 3.08184 cumulative IPC: 2.61950 (Simulation time: 0 hr 4 min 32 sec) 
Heartbeat CPU  1 instructions:   44000000 cycles:   17402457 heartbeat IPC: 3.07899 cumulative IPC: 2.52838 (Simulation time: 0 hr 4 min 36 sec) 
Heartbeat CPU  2 instructions:   46000003 cycles:   17483930 heartbeat IPC: 2.73303 cumulative IPC: 2.63099 (Simulation time: 0 hr 4 min 37 sec) 
Heartbeat CPU  3 instructions:   46000001 cycles:   17498004 heartbeat IPC: 3.13347 cumulative IPC: 2.62887 (Simulation time: 0 hr 4 min 37 sec) 
Heartbeat CPU  0 instructions:   48000000 cycles:   17508905 heartbeat IPC: 2.82106 cumulative IPC: 2.74146 (Simulation time: 0 hr 4 min 38 sec) 
Heartbeat CPU  1 instructions:   45000002 cycles:   17753139 heartbeat IPC: 2.85159 cumulative IPC: 2.53476 (Simulation time: 0 hr 4 min 41 sec) 
Heartbeat CPU  2 instructions:   47000002 cycles:   17929160 heartbeat IPC: 2.24603 cumulative IPC: 2.62143 (Simulation time: 0 hr 4 min 43 sec) 
Heartbeat CPU  0 instructions:   49000000 cycles:   17978696 heartbeat IPC: 2.12861 cumulative IPC: 2.72545 (Simulation time: 0 hr 4 min 44 sec) 
Heartbeat CPU  1 instructions:   46000000 cycles:   18085411 heartbeat IPC: 3.00958 cumulative IPC: 2.54349 (Simulation time: 0 hr 4 min 46 sec) 
Heartbeat CPU  3 instructions:   47000002 cycles:   18088162 heartbeat IPC: 1.69446 cumulative IPC: 2.59838 (Simulation time: 0 hr 4 min 46 sec) 
Heartbeat CPU  0 instructions:   50000003 cycles:   18349178 heartbeat IPC: 2.69919 cumulative IPC: 2.72492 (Simulation time: 0 hr 4 min 49 sec) 
Heartbeat CPU  2 instructions:   48000000 cycles:   18444474 heartbeat IPC: 1.94056 cumulative IPC: 2.60241 (Simulation time: 0 hr 4 min 51 sec) 
Heartbeat CPU  3 instructions:   48000000 cycles:   18500160 heartbeat IPC: 2.42719 cumulative IPC: 2.59457 (Simulation time: 0 hr 4 min 52 sec) 
Heartbeat CPU  1 instructions:   47000001 cycles:   18511108 heartbeat IPC: 2.34909 cumulative IPC: 2.53902 (Simulation time: 0 hr 4 min 52 sec) 
Heartbeat CPU  0 instructions:   51000001 cycles:   18674200 heartbeat IPC: 3.07671 cumulative IPC: 0.05355 (Simulation time: 0 hr 4 min 55 sec) 
Heartbeat CPU  2 instructions:   49000002 cycles:   18761476 heartbeat IPC: 3.15456 cumulative IPC: 2.61173 (Simulation time: 0 hr 4 min 56 sec) 
Heartbeat CPU  1 instructions:   48000000 cycles:   18843772 heartbeat IPC: 3.00603 cumulative IPC: 2.54726 (Simulation time: 0 hr 4 min 58 sec) 
Heartbeat CPU  0 instructions:   52000000 cycles:   18996133 heartbeat IPC: 3.10623 cumulative IPC: 0.10528 (Simulation time: 0 hr 5 min 0 sec) 
Heartbeat CPU  3 instructions:   49000003 cycles:   19013477 heartbeat IPC: 1.94812 cumulative IPC: 2.57712 (Simulation time: 0 hr 5 min 0 sec) 
Heartbeat CPU  2 instructions:   50000002 cycles:   19084172 heartbeat IPC: 3.09889 cumulative IPC: 2.61997 (Simulation time: 0 hr 5 min 1 sec) 
Heartbeat CPU  1 instructions:   49000001 cycles:   19243366 heartbeat IPC: 2.50254 cumulative IPC: 2.54633 (Simulation time: 0 hr 5 min 4 sec) 
Heartbeat CPU  0 instructions:   53000002 cycles:   19320360 heartbeat IPC: 3.08426 cumulative IPC: 0.15528 (Simulation time: 0 hr 5 min 5 sec) 
Heartbeat CPU  2 instructions:   51000002 cycles:   19469948 heartbeat IPC: 2.59218 cumulative IPC: 0.05136 (Simulation time: 0 hr 5 min 7 sec) 
Heartbeat CPU  3 instructions:   50000002 cycles:   19516927 heartbeat IPC: 1.98629 cumulative IPC: 2.56188 (Simulation time: 0 hr 5 min 8 sec) 
Heartbeat CPU  1 instructions:   50000001 cycles:   19578803 heartbeat IPC: 2.98119 cumulative IPC: 2.55378 (Simulation time: 0 hr 5 min 9 sec) 

Warmup complete CPU  0 instructions:   53649273 cycles:   19578802 (Simulation time: 0 hr 5 min 9 sec) 
Warmup complete CPU  1 instructions:   50000001 cycles:   19578803 (Simulation time: 0 hr 5 min 9 sec) 
Warmup complete CPU  2 instructions:   51163229 cycles:   19578802 (Simulation time: 0 hr 5 min 9 sec) 
Warmup complete CPU  3 instructions:   50191116 cycles:   19578802 (Simulation time: 0 hr 5 min 9 sec) 

Heartbeat CPU  0 instructions:   54000001 cycles:   20682538 heartbeat IPC: 0.73412 cumulative IPC: 0.31776 (Simulation time: 0 hr 5 min 12 sec) 
Heartbeat CPU  2 instructions:   52000000 cycles:   21806690 heartbeat IPC: 0.42795 cumulative IPC: 0.37559 (Simulation time: 0 hr 5 min 15 sec) 
Heartbeat CPU  3 instructions:   51000001 cycles:   21999635 heartbeat IPC: 0.40279 cumulative IPC: 0.33413 (Simulation time: 0 hr 5 min 16 sec) 
Heartbeat CPU  1 instructions:   51000001 cycles:   22558718 heartbeat IPC: 0.33558 cumulative IPC: 0.33558 (Simulation time: 0 hr 5 min 17 sec) 
Heartbeat CPU  0 instructions:   55000000 cycles:   23513023 heartbeat IPC: 0.35330 cumulative IPC: 0.34333 (Simulation time: 0 hr 5 min 20 sec) 
Heartbeat CPU  2 instructions:   53000002 cycles:   24364904 heartbeat IPC: 0.39090 cumulative IPC: 0.38377 (Simulation time: 0 hr 5 min 23 sec) 
Heartbeat CPU  3 instructions:   52000000 cycles:   24551582 heartbeat IPC: 0.39186 cumulative IPC: 0.36376 (Simulation time: 0 hr 5 min 24 sec) 
Heartbeat CPU  1 instructions:   52000000 cycles:   25536328 heartbeat IPC: 0.33584 cumulative IPC: 0.33571 (Simulation time: 0 hr 5 min 27 sec) 
Heartbeat CPU  0 instructions:   56000000 cycles:   26505458 heartbeat IPC: 0.33418 cumulative IPC: 0.33937 (Simulation time: 0 hr 5 min 29 sec) 
Heartbeat CPU  2 instructions:   54000001 cycles:   27277694 heartbeat IPC: 0.34331 cumulative IPC: 0.36846 (Simulation time: 0 hr 5 min 31 sec) 
Heartbeat CPU  3 instructions:   53000003 cycles:   27324203 heartbeat IPC: 0.36067 cumulative IPC: 0.36265 (Simulation time: 0 hr 5 min 32 sec) 
Heartbeat CPU  1 instructions:   53000001 cycles:   28281722 heartbeat IPC: 0.36425 cumulative IPC: 0.34471 (Simulation time: 0 hr 5 min 35 sec) 
Heartbeat CPU  0 instructions:   57000002 cycles:   29041077 heartbeat IPC: 0.39438 cumulative IPC: 0.35411 (Simulation time: 0 hr 5 min 37 sec) 
Heartbeat CPU  2 instructions:   55000002 cycles:   29773972 heartbeat IPC: 0.40060 cumulative IPC: 0.37633 (Simulation time: 0 hr 5 min 39 sec) 
Heartbeat CPU  3 instructions:   54000003 cycles:   29949037 heartbeat IPC: 0.38098 cumulative IPC: 0.36729 (Simulation time: 0 hr 5 min 39 sec) 
Heartbeat CPU  1 instructions:   54000002 cycles:   31450883 heartbeat IPC: 0.31554 cumulative IPC: 0.33693 (Simulation time: 0 hr 5 min 44 sec) 
Heartbeat CPU  0 instructions:   58000000 cycles:   31755081 heartbeat IPC: 0.36846 cumulative IPC: 0.35731 (Simulation time: 0 hr 5 min 45 sec) 
Heartbeat CPU  3 instructions:   55000001 cycles:   32545234 heartbeat IPC: 0.38518 cumulative IPC: 0.37087 (Simulation time: 0 hr 5 min 47 sec) 
Heartbeat CPU  2 instructions:   56000000 cycles:   32553333 heartbeat IPC: 0.35979 cumulative IPC: 0.37279 (Simulation time: 0 hr 5 min 47 sec) 
Heartbeat CPU  1 instructions:   55000002 cycles:   34004271 heartbeat IPC: 0.39164 cumulative IPC: 0.34661 (Simulation time: 0 hr 5 min 52 sec) 
Heartbeat CPU  0 instructions:   59000002 cycles:   34542176 heartbeat IPC: 0.35880 cumulative IPC: 0.35759 (Simulation time: 0 hr 5 min 53 sec) 
Heartbeat CPU  3 instructions:   56000000 cycles:   35153027 heartbeat IPC: 0.38347 cumulative IPC: 0.37298 (Simulation time: 0 hr 5 min 55 sec) 
Heartbeat CPU  2 instructions:   57000000 cycles:   35998524 heartbeat IPC: 0.29026 cumulative IPC: 0.35547 (Simulation time: 0 hr 5 min 58 sec) 
Heartbeat CPU  0 instructions:   60000000 cycles:   36537841 heartbeat IPC: 0.50109 cumulative IPC: 0.37447 (Simulation time: 0 hr 5 min 59 sec) 
Heartbeat CPU  1 instructions:   56000000 cycles:   36543653 heartbeat IPC: 0.39380 cumulative IPC: 0.35367 (Simulation time: 0 hr 5 min 59 sec) 
Heartbeat CPU  3 instructions:   57000000 cycles:   37889735 heartbeat IPC: 0.36540 cumulative IPC: 0.37185 (Simulation time: 0 hr 6 min 3 sec) 
Heartbeat CPU  2 instructions:   58000002 cycles:   38934277 heartbeat IPC: 0.34063 cumulative IPC: 0.35322 (Simulation time: 0 hr 6 min 6 sec) 
Heartbeat CPU  0 instructions:   61000003 cycles:   39422812 heartbeat IPC: 0.34662 cumulative IPC: 0.37043 (Simulation time: 0 hr 6 min 8 sec) 
Heartbeat CPU  1 instructions:   57000000 cycles:   39540749 heartbeat IPC: 0.33366 cumulative IPC: 0.35067 (Simulation time: 0 hr 6 min 8 sec) 
Heartbeat CPU  3 instructions:   58000003 cycles:   40423165 heartbeat IPC: 0.39472 cumulative IPC: 0.37463 (Simulation time: 0 hr 6 min 11 sec) 
Heartbeat CPU  2 instructions:   59000001 cycles:   41331223 heartbeat IPC: 0.41720 cumulative IPC: 0.36027 (Simulation time: 0 hr 6 min 14 sec) 
Heartbeat CPU  0 instructions:   62000002 cycles:   41916345 heartbeat IPC: 0.40104 cumulative IPC: 0.37384 (Simulation time: 0 hr 6 min 16 sec) 
Heartbeat CPU  1 instructions:   58000001 cycles:   42372135 heartbeat IPC: 0.35318 cumulative IPC: 0.35098 (Simulation time: 0 hr 6 min 17 sec) 
Heartbeat CPU  3 instructions:   59000000 cycles:   43120334 heartbeat IPC: 0.37076 cumulative IPC: 0.37418 (Simulation time: 0 hr 6 min 19 sec) 
Heartbeat CPU  2 instructions:   60000000 cycles:   44137284 heartbeat IPC: 0.35637 cumulative IPC: 0.35983 (Simulation time: 0 hr 6 min 22 sec) 
Heartbeat CPU  0 instructions:   63000001 cycles:   44451391 heartbeat IPC: 0.39447 cumulative IPC: 0.37595 (Simulation time: 0 hr 6 min 23 sec) 
Heartbeat CPU  1 instructions:   59000000 cycles:   44835662 heartbeat IPC: 0.40592 cumulative IPC: 0.35634 (Simulation time: 0 hr 6 min 24 sec) 
Heartbeat CPU  3 instructions:   60000000 cycles:   45923905 heartbeat IPC: 0.35669 cumulative IPC: 0.37232 (Simulation time: 0 hr 6 min 28 sec) 
Heartbeat CPU  2 instructions:   61000001 cycles:   46968362 heartbeat IPC: 0.35322 cumulative IPC: 0.35914 (Simulation time: 0 hr 6 min 31 sec) 
Heartbeat CPU  0 instructions:   64000000 cycles:   47019451 heartbeat IPC: 0.38940 cumulative IPC: 0.37720 (Simulation time: 0 hr 6 min 31 sec) 
Heartbeat CPU  1 instructions:   60000000 cycles:   47438362 heartbeat IPC: 0.38422 cumulative IPC: 0.35894 (Simulation time: 0 hr 6 min 32 sec) 
Heartbeat CPU  3 instructions:   61000000 cycles:   48434951 heartbeat IPC: 0.39824 cumulative IPC: 0.37458 (Simulation time: 0 hr 6 min 35 sec) 
Heartbeat CPU  0 instructions:   65000003 cycles:   49600993 heartbeat IPC: 0.38737 cumulative IPC: 0.37808 (Simulation time: 0 hr 6 min 39 sec) 
Heartbeat CPU  2 instructions:   62000000 cycles:   49885531 heartbeat IPC: 0.34280 cumulative IPC: 0.35757 (Simulation time: 0 hr 6 min 40 sec) 
Heartbeat CPU  1 instructions:   61000000 cycles:   49940249 heartbeat IPC: 0.39970 cumulative IPC: 0.36230 (Simulation time: 0 hr 6 min 40 sec) 
Heartbeat CPU  3 instructions:   62000001 cycles:   51273609 heartbeat IPC: 0.35228 cumulative IPC: 0.37258 (Simulation time: 0 hr 6 min 44 sec) 
Heartbeat CPU  0 instructions:   66000001 cycles:   52117992 heartbeat IPC: 0.39730 cumulative IPC: 0.37956 (Simulation time: 0 hr 6 min 47 sec) 
Heartbeat CPU  2 instructions:   63000002 cycles:   52563633 heartbeat IPC: 0.37340 cumulative IPC: 0.35886 (Simulation time: 0 hr 6 min 48 sec) 
Heartbeat CPU  1 instructions:   62000002 cycles:   53097263 heartbeat IPC: 0.31676 cumulative IPC: 0.35801 (Simulation time: 0 hr 6 min 50 sec) 
Heartbeat CPU  3 instructions:   63000000 cycles:   53827479 heartbeat IPC: 0.39156 cumulative IPC: 0.37400 (Simulation time: 0 hr 6 min 52 sec) 
Heartbeat CPU  0 instructions:   67000002 cycles:   54732238 heartbeat IPC: 0.38252 cumulative IPC: 0.37978 (Simulation time: 0 hr 6 min 55 sec) 
Heartbeat CPU  1 instructions:   63000000 cycles:   55148403 heartbeat IPC: 0.48753 cumulative IPC: 0.36548 (Simulation time: 0 hr 6 min 56 sec) 
Heartbeat CPU  2 instructions:   64000000 cycles:   55168209 heartbeat IPC: 0.38394 cumulative IPC: 0.36069 (Simulation time: 0 hr 6 min 56 sec) 
Heartbeat CPU  3 instructions:   64000000 cycles:   56363850 heartbeat IPC: 0.39426 cumulative IPC: 0.37539 (Simulation time: 0 hr 7 min 0 sec) 
Heartbeat CPU  0 instructions:   68000000 cycles:   57557475 heartbeat IPC: 0.35395 cumulative IPC: 0.37786 (Simulation time: 0 hr 7 min 4 sec) 
Heartbeat CPU  1 instructions:   64000000 cycles:   57691293 heartbeat IPC: 0.39325 cumulative IPC: 0.36733 (Simulation time: 0 hr 7 min 4 sec) 
Heartbeat CPU  2 instructions:   65000003 cycles:   57740301 heartbeat IPC: 0.38879 cumulative IPC: 0.36258 (Simulation time: 0 hr 7 min 4 sec) 
Heartbeat CPU  3 instructions:   65000002 cycles:   59143227 heartbeat IPC: 0.35979 cumulative IPC: 0.37430 (Simulation time: 0 hr 7 min 8 sec) 
Heartbeat CPU  0 instructions:   69000003 cycles:   59823296 heartbeat IPC: 0.44134 cumulative IPC: 0.38144 (Simulation time: 0 hr 7 min 11 sec) 
Heartbeat CPU  1 instructions:   65000003 cycles:   60241972 heartbeat IPC: 0.39205 cumulative IPC: 0.36888 (Simulation time: 0 hr 7 min 12 sec) 
Heartbeat CPU  2 instructions:   66000000 cycles:   60260092 heartbeat IPC: 0.39686 cumulative IPC: 0.36471 (Simulation time: 0 hr 7 min 12 sec) 
Heartbeat CPU  0 instructions:   70000003 cycles:   62327985 heartbeat IPC: 0.39925 cumulative IPC: 0.38248 (Simulation time: 0 hr 7 min 18 sec) 
Heartbeat CPU  3 instructions:   66000001 cycles:   62351988 heartbeat IPC: 0.31165 cumulative IPC: 0.36960 (Simulation time: 0 hr 7 min 18 sec) 
Heartbeat CPU  2 instructions:   67000000 cycles:   63406235 heartbeat IPC: 0.31785 cumulative IPC: 0.36134 (Simulation time: 0 hr 7 min 21 sec) 
Heartbeat CPU  1 instructions:   66000001 cycles:   63465548 heartbeat IPC: 0.31021 cumulative IPC: 0.36457 (Simulation time: 0 hr 7 min 21 sec) 
Heartbeat CPU  3 instructions:   67000000 cycles:   65579298 heartbeat IPC: 0.30986 cumulative IPC: 0.36541 (Simulation time: 0 hr 7 min 27 sec) 
Heartbeat CPU  0 instructions:   71000000 cycles:   65681242 heartbeat IPC: 0.29822 cumulative IPC: 0.37635 (Simulation time: 0 hr 7 min 28 sec) 
Heartbeat CPU  2 instructions:   68000000 cycles:   65811399 heartbeat IPC: 0.41577 cumulative IPC: 0.36418 (Simulation time: 0 hr 7 min 28 sec) 
Heartbeat CPU  1 instructions:   67000003 cycles:   66009963 heartbeat IPC: 0.39302 cumulative IPC: 0.36613 (Simulation time: 0 hr 7 min 29 sec) 
Heartbeat CPU  0 instructions:   72000000 cycles:   68137177 heartbeat IPC: 0.40718 cumulative IPC: 0.37791 (Simulation time: 0 hr 7 min 36 sec) 
Heartbeat CPU  1 instructions:   68000000 cycles:   68394289 heartbeat IPC: 0.41940 cumulative IPC: 0.36874 (Simulation time: 0 hr 7 min 36 sec) 
Heartbeat CPU  2 instructions:   69000000 cycles:   68511917 heartbeat IPC: 0.37030 cumulative IPC: 0.36451 (Simulation time: 0 hr 7 min 37 sec) 
Heartbeat CPU  3 instructions:   68000000 cycles:   68552784 heartbeat IPC: 0.33631 cumulative IPC: 0.36364 (Simulation time: 0 hr 7 min 37 sec) 
Heartbeat CPU  0 instructions:   73000001 cycles:   70574844 heartbeat IPC: 0.41023 cumulative IPC: 0.37946 (Simulation time: 0 hr 7 min 43 sec) 
Heartbeat CPU  1 instructions:   69000001 cycles:   70575263 heartbeat IPC: 0.45851 cumulative IPC: 0.37257 (Simulation time: 0 hr 7 min 43 sec) 
Heartbeat CPU  2 instructions:   70000000 cycles:   71179233 heartbeat IPC: 0.37491 cumulative IPC: 0.36505 (Simulation time: 0 hr 7 min 45 sec) 
Heartbeat CPU  3 instructions:   69000002 cycles:   71204350 heartbeat IPC: 0.37714 cumulative IPC: 0.36433 (Simulation time: 0 hr 7 min 45 sec) 
Heartbeat CPU  0 instructions:   74000000 cycles:   73056584 heartbeat IPC: 0.40294 cumulative IPC: 0.38055 (Simulation time: 0 hr 7 min 51 sec) 
Heartbeat CPU  1 instructions:   70000003 cycles:   73688549 heartbeat IPC: 0.32120 cumulative IPC: 0.36962 (Simulation time: 0 hr 7 min 53 sec) 
Heartbeat CPU  3 instructions:   70000003 cycles:   73995275 heartbeat IPC: 0.35830 cumulative IPC: 0.36402 (Simulation time: 0 hr 7 min 54 sec) 
Heartbeat CPU  2 instructions:   71000001 cycles:   74078798 heartbeat IPC: 0.34488 cumulative IPC: 0.36398 (Simulation time: 0 hr 7 min 54 sec) 
Heartbeat CPU  0 instructions:   75000003 cycles:   75518856 heartbeat IPC: 0.40613 cumulative IPC: 0.38167 (Simulation time: 0 hr 7 min 59 sec) 
Heartbeat CPU  2 instructions:   72000000 cycles:   76404387 heartbeat IPC: 0.43000 cumulative IPC: 0.36668 (Simulation time: 0 hr 8 min 2 sec) 
Heartbeat CPU  3 instructions:   71000002 cycles:   76409802 heartbeat IPC: 0.41416 cumulative IPC: 0.36615 (Simulation time: 0 hr 8 min 2 sec) 
Heartbeat CPU  1 instructions:   71000003 cycles:   76528946 heartbeat IPC: 0.35206 cumulative IPC: 0.36874 (Simulation time: 0 hr 8 min 2 sec) 
Heartbeat CPU  0 instructions:   76000000 cycles:   77959172 heartbeat IPC: 0.40978 cumulative IPC: 0.38285 (Simulation time: 0 hr 8 min 6 sec) 
Heartbeat CPU  3 instructions:   72000000 cycles:   78848645 heartbeat IPC: 0.41003 cumulative IPC: 0.36796 (Simulation time: 0 hr 8 min 9 sec) 
Heartbeat CPU  1 instructions:   72000000 cycles:   79068576 heartbeat IPC: 0.39376 cumulative IPC: 0.36981 (Simulation time: 0 hr 8 min 10 sec) 
Heartbeat CPU  2 instructions:   73000003 cycles:   79236955 heartbeat IPC: 0.35304 cumulative IPC: 0.36603 (Simulation time: 0 hr 8 min 10 sec) 
Heartbeat CPU  0 instructions:   77000003 cycles:   80345665 heartbeat IPC: 0.41903 cumulative IPC: 0.38427 (Simulation time: 0 hr 8 min 14 sec) 
Heartbeat CPU  1 instructions:   73000001 cycles:   81578633 heartbeat IPC: 0.39840 cumulative IPC: 0.37097 (Simulation time: 0 hr 8 min 18 sec) 
Heartbeat CPU  3 instructions:   73000003 cycles:   81642281 heartbeat IPC: 0.35796 cumulative IPC: 0.36751 (Simulation time: 0 hr 8 min 18 sec) 
Heartbeat CPU  2 instructions:   74000003 cycles:   82003999 heartbeat IPC: 0.36140 cumulative IPC: 0.36583 (Simulation time: 0 hr 8 min 19 sec) 
Heartbeat CPU  0 instructions:   78000002 cycles:   83392821 heartbeat IPC: 0.32817 cumulative IPC: 0.38159 (Simulation time: 0 hr 8 min 23 sec) 
Heartbeat CPU  1 instructions:   74000002 cycles:   84310464 heartbeat IPC: 0.36606 cumulative IPC: 0.37076 (Simulation time: 0 hr 8 min 26 sec) 
Heartbeat CPU  3 instructions:   74000003 cycles:   84389235 heartbeat IPC: 0.36404 cumulative IPC: 0.36736 (Simulation time: 0 hr 8 min 26 sec) 
Heartbeat CPU  2 instructions:   75000000 cycles:   84543673 heartbeat IPC: 0.39375 cumulative IPC: 0.36692 (Simulation time: 0 hr 8 min 27 sec) 
Heartbeat CPU  0 instructions:   79000003 cycles:   86246287 heartbeat IPC: 0.35045 cumulative IPC: 0.38026 (Simulation time: 0 hr 8 min 32 sec) 
Heartbeat CPU  2 instructions:   76000000 cycles:   87056811 heartbeat IPC: 0.39791 cumulative IPC: 0.36807 (Simulation time: 0 hr 8 min 34 sec) 
Heartbeat CPU  3 instructions:   75000002 cycles:   87069891 heartbeat IPC: 0.37304 cumulative IPC: 0.36759 (Simulation time: 0 hr 8 min 34 sec) 
Heartbeat CPU  1 instructions:   75000000 cycles:   87084824 heartbeat IPC: 0.36044 cumulative IPC: 0.37034 (Simulation time: 0 hr 8 min 34 sec) 
Heartbeat CPU  0 instructions:   80000000 cycles:   88765402 heartbeat IPC: 0.39696 cumulative IPC: 0.38086 (Simulation time: 0 hr 8 min 40 sec) 
Heartbeat CPU  2 instructions:   77000000 cycles:   89512119 heartbeat IPC: 0.40728 cumulative IPC: 0.36945 (Simulation time: 0 hr 8 min 42 sec) 
Heartbeat CPU  3 instructions:   76000000 cycles:   89607705 heartbeat IPC: 0.39404 cumulative IPC: 0.36855 (Simulation time: 0 hr 8 min 42 sec) 
Heartbeat CPU  1 instructions:   76000000 cycles:   89930534 heartbeat IPC: 0.35141 cumulative IPC: 0.36957 (Simulation time: 0 hr 8 min 43 sec) 
Heartbeat CPU  0 instructions:   81000002 cycles:   91303884 heartbeat IPC: 0.39394 cumulative IPC: 0.38133 (Simulation time: 0 hr 8 min 47 sec) 
Heartbeat CPU  2 instructions:   78000000 cycles:   92043786 heartbeat IPC: 0.39500 cumulative IPC: 0.37034 (Simulation time: 0 hr 8 min 49 sec) 
Heartbeat CPU  3 instructions:   77000001 cycles:   92424739 heartbeat IPC: 0.35498 cumulative IPC: 0.36802 (Simulation time: 0 hr 8 min 51 sec) 
Heartbeat CPU  1 instructions:   77000003 cycles:   92558740 heartbeat IPC: 0.38049 cumulative IPC: 0.36996 (Simulation time: 0 hr 8 min 51 sec) 
Heartbeat CPU  0 instructions:   82000003 cycles:   93771246 heartbeat IPC: 0.40529 cumulative IPC: 0.38212 (Simulation time: 0 hr 8 min 55 sec) 
Heartbeat CPU  2 instructions:   79000003 cycles:   94566483 heartbeat IPC: 0.39640 cumulative IPC: 0.37122 (Simulation time: 0 hr 8 min 57 sec) 
Heartbeat CPU  1 instructions:   78000000 cycles:   95022096 heartbeat IPC: 0.40595 cumulative IPC: 0.37114 (Simulation time: 0 hr 8 min 59 sec) 
Heartbeat CPU  3 instructions:   78000002 cycles:   95425304 heartbeat IPC: 0.33327 cumulative IPC: 0.36665 (Simulation time: 0 hr 9 min 0 sec) 
Heartbeat CPU  0 instructions:   83000003 cycles:   96398040 heartbeat IPC: 0.38069 cumulative IPC: 0.38208 (Simulation time: 0 hr 9 min 3 sec) 
Heartbeat CPU  2 instructions:   80000000 cycles:   97067382 heartbeat IPC: 0.39986 cumulative IPC: 0.37214 (Simulation time: 0 hr 9 min 5 sec) 
Heartbeat CPU  1 instructions:   79000002 cycles:   97653495 heartbeat IPC: 0.38003 cumulative IPC: 0.37144 (Simulation time: 0 hr 9 min 7 sec) 
Heartbeat CPU  3 instructions:   79000003 cycles:   97754468 heartbeat IPC: 0.42934 cumulative IPC: 0.36851 (Simulation time: 0 hr 9 min 7 sec) 
Heartbeat CPU  0 instructions:   84000000 cycles:   99040586 heartbeat IPC: 0.37842 cumulative IPC: 0.38195 (Simulation time: 0 hr 9 min 11 sec) 
Heartbeat CPU  2 instructions:   81000000 cycles:   99874572 heartbeat IPC: 0.35623 cumulative IPC: 0.37159 (Simulation time: 0 hr 9 min 14 sec) 
Heartbeat CPU  1 instructions:   80000000 cycles:  100258642 heartbeat IPC: 0.38385 cumulative IPC: 0.37184 (Simulation time: 0 hr 9 min 15 sec) 
Heartbeat CPU  3 instructions:   80000000 cycles:  100285997 heartbeat IPC: 0.39502 cumulative IPC: 0.36935 (Simulation time: 0 hr 9 min 15 sec) 
Heartbeat CPU  0 instructions:   85000001 cycles:  102101791 heartbeat IPC: 0.32667 cumulative IPC: 0.37990 (Simulation time: 0 hr 9 min 20 sec) 
Heartbeat CPU  2 instructions:   82000002 cycles:  102298372 heartbeat IPC: 0.41258 cumulative IPC: 0.37279 (Simulation time: 0 hr 9 min 21 sec) 
Heartbeat CPU  3 instructions:   81000001 cycles:  102828160 heartbeat IPC: 0.39337 cumulative IPC: 0.37008 (Simulation time: 0 hr 9 min 23 sec) 
Heartbeat CPU  1 instructions:   81000000 cycles:  102864643 heartbeat IPC: 0.38373 cumulative IPC: 0.37221 (Simulation time: 0 hr 9 min 23 sec) 
Heartbeat CPU  2 instructions:   83000002 cycles:  104792129 heartbeat IPC: 0.40100 cumulative IPC: 0.37361 (Simulation time: 0 hr 9 min 28 sec) 
Heartbeat CPU  0 instructions:   86000001 cycles:  105044426 heartbeat IPC: 0.33983 cumulative IPC: 0.37852 (Simulation time: 0 hr 9 min 29 sec) 
Heartbeat CPU  3 instructions:   82000002 cycles:  105641215 heartbeat IPC: 0.35549 cumulative IPC: 0.36960 (Simulation time: 0 hr 9 min 31 sec) 
Heartbeat CPU  1 instructions:   82000003 cycles:  106295877 heartbeat IPC: 0.29144 cumulative IPC: 0.36902 (Simulation time: 0 hr 9 min 33 sec) 
Heartbeat CPU  2 instructions:   84000000 cycles:  107257661 heartbeat IPC: 0.40559 cumulative IPC: 0.37451 (Simulation time: 0 hr 9 min 36 sec) 
Heartbeat CPU  0 instructions:   87000000 cycles:  107479898 heartbeat IPC: 0.41060 cumulative IPC: 0.37941 (Simulation time: 0 hr 9 min 37 sec) 
Heartbeat CPU  3 instructions:   83000003 cycles:  108104132 heartbeat IPC: 0.40602 cumulative IPC: 0.37062 (Simulation time: 0 hr 9 min 39 sec) 
Heartbeat CPU  1 instructions:   83000002 cycles:  109039535 heartbeat IPC: 0.36448 cumulative IPC: 0.36888 (Simulation time: 0 hr 9 min 41 sec) 
Heartbeat CPU  2 instructions:   85000001 cycles:  109737990 heartbeat IPC: 0.40317 cumulative IPC: 0.37530 (Simulation time: 0 hr 9 min 44 sec) 
Heartbeat CPU  0 instructions:   88000000 cycles:  110208305 heartbeat IPC: 0.36651 cumulative IPC: 0.37902 (Simulation time: 0 hr 9 min 45 sec) 
Heartbeat CPU  3 instructions:   84000000 cycles:  110574631 heartbeat IPC: 0.40478 cumulative IPC: 0.37154 (Simulation time: 0 hr 9 min 46 sec) 
Heartbeat CPU  1 instructions:   84000000 cycles:  111898991 heartbeat IPC: 0.34972 cumulative IPC: 0.36828 (Simulation time: 0 hr 9 min 50 sec) 
Heartbeat CPU  2 instructions:   86000002 cycles:  112690281 heartbeat IPC: 0.33872 cumulative IPC: 0.37414 (Simulation time: 0 hr 9 min 52 sec) 
Heartbeat CPU  0 instructions:   89000001 cycles:  112698109 heartbeat IPC: 0.40164 cumulative IPC: 0.37963 (Simulation time: 0 hr 9 min 53 sec) 
Heartbeat CPU  3 instructions:   85000000 cycles:  113058501 heartbeat IPC: 0.40260 cumulative IPC: 0.37237 (Simulation time: 0 hr 9 min 54 sec) 
Heartbeat CPU  1 instructions:   85000001 cycles:  114677907 heartbeat IPC: 0.35985 cumulative IPC: 0.36804 (Simulation time: 0 hr 9 min 58 sec) 
Heartbeat CPU  2 instructions:   87000002 cycles:  115380338 heartbeat IPC: 0.37174 cumulative IPC: 0.37407 (Simulation time: 0 hr 10 min 1 sec) 
Heartbeat CPU  0 instructions:   90000002 cycles:  115813136 heartbeat IPC: 0.32102 cumulative IPC: 0.37773 (Simulation time: 0 hr 10 min 2 sec) 
Heartbeat CPU  3 instructions:   86000003 cycles:  115896465 heartbeat IPC: 0.35237 cumulative IPC: 0.37178 (Simulation time: 0 hr 10 min 2 sec) 
Heartbeat CPU  2 instructions:   88000000 cycles:  117809940 heartbeat IPC: 0.41159 cumulative IPC: 0.37500 (Simulation time: 0 hr 10 min 7 sec) 
Heartbeat CPU  1 instructions:   86000003 cycles:  118345295 heartbeat IPC: 0.27267 cumulative IPC: 0.36450 (Simulation time: 0 hr 10 min 9 sec) 
Heartbeat CPU  0 instructions:   91000000 cycles:  118413099 heartbeat IPC: 0.38462 cumulative IPC: 0.37791 (Simulation time: 0 hr 10 min 9 sec) 
Heartbeat CPU  3 instructions:   87000001 cycles:  120121748 heartbeat IPC: 0.23667 cumulative IPC: 0.36610 (Simulation time: 0 hr 10 min 13 sec) 
Heartbeat CPU  2 instructions:   89000000 cycles:  120244979 heartbeat IPC: 0.41067 cumulative IPC: 0.37586 (Simulation time: 0 hr 10 min 14 sec) 
Heartbeat CPU  0 instructions:   92000000 cycles:  120910906 heartbeat IPC: 0.40035 cumulative IPC: 0.37847 (Simulation time: 0 hr 10 min 15 sec) 
Heartbeat CPU  2 instructions:   90000003 cycles:  122573462 heartbeat IPC: 0.42947 cumulative IPC: 0.37708 (Simulation time: 0 hr 10 min 20 sec) 
Heartbeat CPU  1 instructions:   87000000 cycles:  123313075 heartbeat IPC: 0.20130 cumulative IPC: 0.35668 (Simulation time: 0 hr 10 min 22 sec) 
Heartbeat CPU  0 instructions:   93000000 cycles:  123532196 heartbeat IPC: 0.38149 cumulative IPC: 0.37854 (Simulation time: 0 hr 10 min 23 sec) 
Heartbeat CPU  3 instructions:   88000000 cycles:  123865629 heartbeat IPC: 0.26710 cumulative IPC: 0.36255 (Simulation time: 0 hr 10 min 23 sec) 
Heartbeat CPU  2 instructions:   91000000 cycles:  125551206 heartbeat IPC: 0.33582 cumulative IPC: 0.37592 (Simulation time: 0 hr 10 min 28 sec) 
Heartbeat CPU  0 instructions:   94000002 cycles:  126179428 heartbeat IPC: 0.37775 cumulative IPC: 0.37852 (Simulation time: 0 hr 10 min 30 sec) 
Heartbeat CPU  3 instructions:   89000003 cycles:  126406058 heartbeat IPC: 0.39364 cumulative IPC: 0.36329 (Simulation time: 0 hr 10 min 30 sec) 
Heartbeat CPU  2 instructions:   92000000 cycles:  128435626 heartbeat IPC: 0.34669 cumulative IPC: 0.37514 (Simulation time: 0 hr 10 min 36 sec) 
Heartbeat CPU  0 instructions:   95000002 cycles:  128800721 heartbeat IPC: 0.38149 cumulative IPC: 0.37859 (Simulation time: 0 hr 10 min 37 sec) 
Heartbeat CPU  3 instructions:   90000003 cycles:  128883698 heartbeat IPC: 0.40361 cumulative IPC: 0.36420 (Simulation time: 0 hr 10 min 37 sec) 
Heartbeat CPU  1 instructions:   88000000 cycles:  129650537 heartbeat IPC: 0.15779 cumulative IPC: 0.34523 (Simulation time: 0 hr 10 min 39 sec) 
Heartbeat CPU  0 instructions:   96000000 cycles:  131060804 heartbeat IPC: 0.44246 cumulative IPC: 0.37989 (Simulation time: 0 hr 10 min 43 sec) 
Heartbeat CPU  2 instructions:   93000001 cycles:  131302592 heartbeat IPC: 0.34880 cumulative IPC: 0.37447 (Simulation time: 0 hr 10 min 43 sec) 
Heartbeat CPU  3 instructions:   91000001 cycles:  131407639 heartbeat IPC: 0.39620 cumulative IPC: 0.36492 (Simulation time: 0 hr 10 min 44 sec) 
Heartbeat CPU  0 instructions:   97000002 cycles:  133655034 heartbeat IPC: 0.38547 cumulative IPC: 0.38002 (Simulation time: 0 hr 10 min 49 sec) 
Heartbeat CPU  2 instructions:   94000003 cycles:  133955283 heartbeat IPC: 0.37698 cumulative IPC: 0.37452 (Simulation time: 0 hr 10 min 50 sec) 
Heartbeat CPU  3 instructions:   92000000 cycles:  134760716 heartbeat IPC: 0.29823 cumulative IPC: 0.36298 (Simulation time: 0 hr 10 min 52 sec) 
Heartbeat CPU  1 instructions:   89000000 cycles:  135060960 heartbeat IPC: 0.18483 cumulative IPC: 0.33771 (Simulation time: 0 hr 10 min 53 sec) 
Heartbeat CPU  0 instructions:   98000002 cycles:  137056700 heartbeat IPC: 0.29397 cumulative IPC: 0.37752 (Simulation time: 0 hr 10 min 59 sec) 
Heartbeat CPU  2 instructions:   95000001 cycles:  137198473 heartbeat IPC: 0.30834 cumulative IPC: 0.37270 (Simulation time: 0 hr 10 min 59 sec) 
Heartbeat CPU  3 instructions:   93000000 cycles:  137504643 heartbeat IPC: 0.36444 cumulative IPC: 0.36302 (Simulation time: 0 hr 11 min 0 sec) 
Heartbeat CPU  1 instructions:   90000000 cycles:  137669530 heartbeat IPC: 0.38335 cumulative IPC: 0.33872 (Simulation time: 0 hr 11 min 1 sec) 
Heartbeat CPU  0 instructions:   99000001 cycles:  139656021 heartbeat IPC: 0.38472 cumulative IPC: 0.37768 (Simulation time: 0 hr 11 min 6 sec) 
Heartbeat CPU  2 instructions:   96000000 cycles:  139758559 heartbeat IPC: 0.39061 cumulative IPC: 0.37308 (Simulation time: 0 hr 11 min 7 sec) 
Heartbeat CPU  1 instructions:   91000001 cycles:  140695146 heartbeat IPC: 0.33051 cumulative IPC: 0.33852 (Simulation time: 0 hr 11 min 9 sec) 
Heartbeat CPU  3 instructions:   94000000 cycles:  141978263 heartbeat IPC: 0.22353 cumulative IPC: 0.35792 (Simulation time: 0 hr 11 min 13 sec) 
*** Reached end of trace for Core: 0 Repeating trace: /data3/CASSANDRA/traces/cassandra_phase5_core0.trace.xz
Heartbeat CPU  0 instructions:  100000000 cycles:  142217579 heartbeat IPC: 0.39039 cumulative IPC: 0.37795 (Simulation time: 0 hr 11 min 14 sec) 
Heartbeat CPU  2 instructions:   97000003 cycles:  142292033 heartbeat IPC: 0.39472 cumulative IPC: 0.37353 (Simulation time: 0 hr 11 min 14 sec) 
Heartbeat CPU  1 instructions:   92000000 cycles:  143652563 heartbeat IPC: 0.33813 cumulative IPC: 0.33851 (Simulation time: 0 hr 11 min 18 sec) 
Heartbeat CPU  2 instructions:   98000001 cycles:  144880687 heartbeat IPC: 0.38630 cumulative IPC: 0.37379 (Simulation time: 0 hr 11 min 22 sec) 
Heartbeat CPU  0 instructions:  101000000 cycles:  145259590 heartbeat IPC: 0.32873 cumulative IPC: 0.37675 (Simulation time: 0 hr 11 min 23 sec) 
Heartbeat CPU  3 instructions:   95000003 cycles:  145374079 heartbeat IPC: 0.29448 cumulative IPC: 0.35620 (Simulation time: 0 hr 11 min 23 sec) 
Heartbeat CPU  1 instructions:   93000002 cycles:  146222105 heartbeat IPC: 0.38918 cumulative IPC: 0.33954 (Simulation time: 0 hr 11 min 26 sec) 
Heartbeat CPU  0 instructions:  102000002 cycles:  147300166 heartbeat IPC: 0.49006 cumulative IPC: 0.37856 (Simulation time: 0 hr 11 min 29 sec) 
Heartbeat CPU  3 instructions:   96000000 cycles:  148147703 heartbeat IPC: 0.36054 cumulative IPC: 0.35630 (Simulation time: 0 hr 11 min 31 sec) 
Heartbeat CPU  2 instructions:   99000003 cycles:  148212679 heartbeat IPC: 0.30012 cumulative IPC: 0.37188 (Simulation time: 0 hr 11 min 31 sec) 
Heartbeat CPU  0 instructions:  103000001 cycles:  149733940 heartbeat IPC: 0.41088 cumulative IPC: 0.37917 (Simulation time: 0 hr 11 min 36 sec) 
Heartbeat CPU  1 instructions:   94000000 cycles:  150720009 heartbeat IPC: 0.22233 cumulative IPC: 0.33552 (Simulation time: 0 hr 11 min 38 sec) 
Heartbeat CPU  3 instructions:   97000001 cycles:  150896368 heartbeat IPC: 0.36381 cumulative IPC: 0.35646 (Simulation time: 0 hr 11 min 39 sec) 
*** Reached end of trace for Core: 2 Repeating trace: /data3/CASSANDRA/traces/cassandra_phase5_core2.trace.xz
Heartbeat CPU  2 instructions:  100000000 cycles:  151071962 heartbeat IPC: 0.34974 cumulative IPC: 0.37140 (Simulation time: 0 hr 11 min 39 sec) 
Heartbeat CPU  0 instructions:  104000000 cycles:  152210073 heartbeat IPC: 0.40386 cumulative IPC: 0.37963 (Simulation time: 0 hr 11 min 43 sec) 
Heartbeat CPU  3 instructions:   98000003 cycles:  153630278 heartbeat IPC: 0.36578 cumulative IPC: 0.35665 (Simulation time: 0 hr 11 min 47 sec) 
Heartbeat CPU  2 instructions:  101000000 cycles:  153968291 heartbeat IPC: 0.34526 cumulative IPC: 0.37084 (Simulation time: 0 hr 11 min 47 sec) 
Heartbeat CPU  0 instructions:  105000000 cycles:  154889229 heartbeat IPC: 0.37325 cumulative IPC: 0.37950 (Simulation time: 0 hr 11 min 50 sec) 
Heartbeat CPU  3 instructions:   99000003 cycles:  156424830 heartbeat IPC: 0.35784 cumulative IPC: 0.35667 (Simulation time: 0 hr 11 min 54 sec) 
Heartbeat CPU  2 instructions:  102000002 cycles:  156532551 heartbeat IPC: 0.38998 cumulative IPC: 0.37120 (Simulation time: 0 hr 11 min 55 sec) 
Heartbeat CPU  1 instructions:   95000000 cycles:  156545239 heartbeat IPC: 0.17167 cumulative IPC: 0.32855 (Simulation time: 0 hr 11 min 55 sec) 
Heartbeat CPU  0 instructions:  106000003 cycles:  157424067 heartbeat IPC: 0.39450 cumulative IPC: 0.37978 (Simulation time: 0 hr 11 min 57 sec) 
*** Reached end of trace for Core: 3 Repeating trace: /data3/CASSANDRA/traces/cassandra_phase5_core3.trace.xz
Heartbeat CPU  3 instructions:  100000000 cycles:  159210069 heartbeat IPC: 0.35903 cumulative IPC: 0.35672 (Simulation time: 0 hr 12 min 2 sec) 
Heartbeat CPU  1 instructions:   96000000 cycles:  159523723 heartbeat IPC: 0.33574 cumulative IPC: 0.32870 (Simulation time: 0 hr 12 min 3 sec) 
Heartbeat CPU  2 instructions:  103000002 cycles:  159821793 heartbeat IPC: 0.30402 cumulative IPC: 0.36962 (Simulation time: 0 hr 12 min 4 sec) 
Heartbeat CPU  0 instructions:  107000002 cycles:  160520621 heartbeat IPC: 0.32294 cumulative IPC: 0.37853 (Simulation time: 0 hr 12 min 5 sec) 
Heartbeat CPU  3 instructions:  101000001 cycles:  162282853 heartbeat IPC: 0.32544 cumulative IPC: 0.35604 (Simulation time: 0 hr 12 min 10 sec) 
Heartbeat CPU  2 instructions:  104000000 cycles:  162350600 heartbeat IPC: 0.39544 cumulative IPC: 0.37008 (Simulation time: 0 hr 12 min 10 sec) 
Heartbeat CPU  0 instructions:  108000000 cycles:  163126277 heartbeat IPC: 0.38378 cumulative IPC: 0.37863 (Simulation time: 0 hr 12 min 12 sec) 
Heartbeat CPU  3 instructions:  102000000 cycles:  164822192 heartbeat IPC: 0.39380 cumulative IPC: 0.35670 (Simulation time: 0 hr 12 min 17 sec) 
Heartbeat CPU  1 instructions:   97000003 cycles:  164949529 heartbeat IPC: 0.18430 cumulative IPC: 0.32331 (Simulation time: 0 hr 12 min 17 sec) 
Heartbeat CPU  2 instructions:  105000001 cycles:  165143776 heartbeat IPC: 0.35802 cumulative IPC: 0.36985 (Simulation time: 0 hr 12 min 18 sec) 
Heartbeat CPU  0 instructions:  109000001 cycles:  166397278 heartbeat IPC: 0.30572 cumulative IPC: 0.37700 (Simulation time: 0 hr 12 min 21 sec) 
Heartbeat CPU  3 instructions:  103000002 cycles:  167688150 heartbeat IPC: 0.34892 cumulative IPC: 0.35655 (Simulation time: 0 hr 12 min 25 sec) 
Heartbeat CPU  1 instructions:   98000002 cycles:  167727714 heartbeat IPC: 0.35995 cumulative IPC: 0.32400 (Simulation time: 0 hr 12 min 25 sec) 
Heartbeat CPU  2 instructions:  106000000 cycles:  167948884 heartbeat IPC: 0.35649 cumulative IPC: 0.36959 (Simulation time: 0 hr 12 min 26 sec) 
Heartbeat CPU  0 instructions:  110000001 cycles:  168849531 heartbeat IPC: 0.40779 cumulative IPC: 0.37751 (Simulation time: 0 hr 12 min 29 sec) 
Heartbeat CPU  1 instructions:   99000001 cycles:  170290660 heartbeat IPC: 0.39018 cumulative IPC: 0.32512 (Simulation time: 0 hr 12 min 33 sec) 
Heartbeat CPU  3 instructions:  104000000 cycles:  170295048 heartbeat IPC: 0.38360 cumulative IPC: 0.35702 (Simulation time: 0 hr 12 min 33 sec) 
Heartbeat CPU  2 instructions:  107000000 cycles:  170652131 heartbeat IPC: 0.36993 cumulative IPC: 0.36960 (Simulation time: 0 hr 12 min 34 sec) 
Heartbeat CPU  0 instructions:  111000002 cycles:  171923264 heartbeat IPC: 0.32534 cumulative IPC: 0.37645 (Simulation time: 0 hr 12 min 38 sec) 
*** Reached end of trace for Core: 1 Repeating trace: /data3/CASSANDRA/traces/cassandra_phase5_core1.trace.xz
Heartbeat CPU  1 instructions:  100000000 cycles:  172893002 heartbeat IPC: 0.38427 cumulative IPC: 0.32613 (Simulation time: 0 hr 12 min 41 sec) 
Heartbeat CPU  2 instructions:  108000000 cycles:  173268531 heartbeat IPC: 0.38220 cumulative IPC: 0.36982 (Simulation time: 0 hr 12 min 42 sec) 
Heartbeat CPU  3 instructions:  105000002 cycles:  173542416 heartbeat IPC: 0.30794 cumulative IPC: 0.35599 (Simulation time: 0 hr 12 min 43 sec) 
Heartbeat CPU  0 instructions:  112000000 cycles:  174407729 heartbeat IPC: 0.40250 cumulative IPC: 0.37687 (Simulation time: 0 hr 12 min 46 sec) 
Heartbeat CPU  1 instructions:  101000003 cycles:  175507198 heartbeat IPC: 0.38253 cumulative IPC: 0.32707 (Simulation time: 0 hr 12 min 49 sec) 
Heartbeat CPU  3 instructions:  106000002 cycles:  176071735 heartbeat IPC: 0.39536 cumulative IPC: 0.35662 (Simulation time: 0 hr 12 min 51 sec) 
Heartbeat CPU  2 instructions:  109000003 cycles:  176097388 heartbeat IPC: 0.35350 cumulative IPC: 0.36952 (Simulation time: 0 hr 12 min 51 sec) 
Heartbeat CPU  0 instructions:  113000001 cycles:  177037340 heartbeat IPC: 0.38028 cumulative IPC: 0.37693 (Simulation time: 0 hr 12 min 54 sec) 
Heartbeat CPU  1 instructions:  102000001 cycles:  177824266 heartbeat IPC: 0.43158 cumulative IPC: 0.32860 (Simulation time: 0 hr 12 min 56 sec) 
Heartbeat CPU  3 instructions:  107000003 cycles:  178734466 heartbeat IPC: 0.37555 cumulative IPC: 0.35694 (Simulation time: 0 hr 12 min 59 sec) 
Heartbeat CPU  2 instructions:  110000001 cycles:  178997276 heartbeat IPC: 0.34484 cumulative IPC: 0.36907 (Simulation time: 0 hr 13 min 0 sec) 
Heartbeat CPU  0 instructions:  114000003 cycles:  179678851 heartbeat IPC: 0.37857 cumulative IPC: 0.37696 (Simulation time: 0 hr 13 min 2 sec) 
Heartbeat CPU  1 instructions:  103000002 cycles:  180339475 heartbeat IPC: 0.39758 cumulative IPC: 0.32968 (Simulation time: 0 hr 13 min 4 sec) 
Heartbeat CPU  3 instructions:  108000000 cycles:  181389402 heartbeat IPC: 0.37666 cumulative IPC: 0.35726 (Simulation time: 0 hr 13 min 7 sec) 
Heartbeat CPU  2 instructions:  111000003 cycles:  181621694 heartbeat IPC: 0.38104 cumulative IPC: 0.36927 (Simulation time: 0 hr 13 min 8 sec) 
Heartbeat CPU  0 instructions:  115000000 cycles:  182247066 heartbeat IPC: 0.38937 cumulative IPC: 0.37715 (Simulation time: 0 hr 13 min 10 sec) 
Heartbeat CPU  1 instructions:  104000000 cycles:  182729225 heartbeat IPC: 0.41845 cumulative IPC: 0.33098 (Simulation time: 0 hr 13 min 11 sec) 
Heartbeat CPU  3 instructions:  109000003 cycles:  184080664 heartbeat IPC: 0.37157 cumulative IPC: 0.35750 (Simulation time: 0 hr 13 min 16 sec) 
Heartbeat CPU  2 instructions:  112000000 cycles:  184285555 heartbeat IPC: 0.37539 cumulative IPC: 0.36936 (Simulation time: 0 hr 13 min 16 sec) 
Heartbeat CPU  0 instructions:  116000000 cycles:  185084980 heartbeat IPC: 0.35237 cumulative IPC: 0.37673 (Simulation time: 0 hr 13 min 19 sec) 
Heartbeat CPU  1 instructions:  105000003 cycles:  185177935 heartbeat IPC: 0.40838 cumulative IPC: 0.33213 (Simulation time: 0 hr 13 min 19 sec) 
Heartbeat CPU  2 instructions:  113000000 cycles:  186840481 heartbeat IPC: 0.39140 cumulative IPC: 0.36970 (Simulation time: 0 hr 13 min 24 sec) 
Heartbeat CPU  3 instructions:  110000000 cycles:  187010933 heartbeat IPC: 0.34126 cumulative IPC: 0.35721 (Simulation time: 0 hr 13 min 24 sec) 
Heartbeat CPU  0 instructions:  117000002 cycles:  187753888 heartbeat IPC: 0.37469 cumulative IPC: 0.37670 (Simulation time: 0 hr 13 min 26 sec) 
Heartbeat CPU  1 instructions:  106000003 cycles:  187786826 heartbeat IPC: 0.38330 cumulative IPC: 0.33292 (Simulation time: 0 hr 13 min 27 sec) 
Heartbeat CPU  3 instructions:  111000001 cycles:  190099380 heartbeat IPC: 0.32379 cumulative IPC: 0.35661 (Simulation time: 0 hr 13 min 33 sec) 
Heartbeat CPU  0 instructions:  118000000 cycles:  190505746 heartbeat IPC: 0.36339 cumulative IPC: 0.37648 (Simulation time: 0 hr 13 min 34 sec) 
Heartbeat CPU  2 instructions:  114000000 cycles:  190960073 heartbeat IPC: 0.24274 cumulative IPC: 0.36665 (Simulation time: 0 hr 13 min 35 sec) 
Heartbeat CPU  1 instructions:  107000001 cycles:  191028707 heartbeat IPC: 0.30846 cumulative IPC: 0.33246 (Simulation time: 0 hr 13 min 36 sec) 
Heartbeat CPU  0 instructions:  119000000 cycles:  193108051 heartbeat IPC: 0.38427 cumulative IPC: 0.37660 (Simulation time: 0 hr 13 min 42 sec) 
Heartbeat CPU  3 instructions:  112000000 cycles:  193201893 heartbeat IPC: 0.32232 cumulative IPC: 0.35599 (Simulation time: 0 hr 13 min 42 sec) 
Heartbeat CPU  2 instructions:  115000002 cycles:  193653995 heartbeat IPC: 0.37121 cumulative IPC: 0.36672 (Simulation time: 0 hr 13 min 43 sec) 
Heartbeat CPU  1 instructions:  108000000 cycles:  194128587 heartbeat IPC: 0.32259 cumulative IPC: 0.33228 (Simulation time: 0 hr 13 min 45 sec) 
Heartbeat CPU  3 instructions:  113000000 cycles:  195789731 heartbeat IPC: 0.38642 cumulative IPC: 0.35644 (Simulation time: 0 hr 13 min 49 sec) 
Heartbeat CPU  0 instructions:  120000000 cycles:  195959232 heartbeat IPC: 0.35073 cumulative IPC: 0.37618 (Simulation time: 0 hr 13 min 50 sec) 
Heartbeat CPU  2 instructions:  116000000 cycles:  196114461 heartbeat IPC: 0.40643 cumulative IPC: 0.36727 (Simulation time: 0 hr 13 min 50 sec) 
Heartbeat CPU  1 instructions:  109000003 cycles:  197776196 heartbeat IPC: 0.27415 cumulative IPC: 0.33109 (Simulation time: 0 hr 13 min 55 sec) 
Heartbeat CPU  0 instructions:  121000002 cycles:  198458367 heartbeat IPC: 0.40014 cumulative IPC: 0.37651 (Simulation time: 0 hr 13 min 57 sec) 
Heartbeat CPU  3 instructions:  114000001 cycles:  198626135 heartbeat IPC: 0.35256 cumulative IPC: 0.35638 (Simulation time: 0 hr 13 min 58 sec) 
Heartbeat CPU  2 instructions:  117000000 cycles:  198967717 heartbeat IPC: 0.35048 cumulative IPC: 0.36701 (Simulation time: 0 hr 13 min 59 sec) 
Heartbeat CPU  3 instructions:  115000001 cycles:  201103441 heartbeat IPC: 0.40366 cumulative IPC: 0.35703 (Simulation time: 0 hr 14 min 5 sec) 
Heartbeat CPU  1 instructions:  110000001 cycles:  201190136 heartbeat IPC: 0.29292 cumulative IPC: 0.33038 (Simulation time: 0 hr 14 min 5 sec) 
Heartbeat CPU  0 instructions:  122000000 cycles:  201439304 heartbeat IPC: 0.33546 cumulative IPC: 0.37584 (Simulation time: 0 hr 14 min 6 sec) 
Heartbeat CPU  2 instructions:  118000000 cycles:  202680775 heartbeat IPC: 0.26932 cumulative IPC: 0.36502 (Simulation time: 0 hr 14 min 9 sec) 
Heartbeat CPU  3 instructions:  116000000 cycles:  203995558 heartbeat IPC: 0.34577 cumulative IPC: 0.35685 (Simulation time: 0 hr 14 min 12 sec) 
Heartbeat CPU  0 instructions:  123000000 cycles:  204492495 heartbeat IPC: 0.32753 cumulative IPC: 0.37504 (Simulation time: 0 hr 14 min 14 sec) 
Heartbeat CPU  1 instructions:  111000002 cycles:  205062329 heartbeat IPC: 0.25825 cumulative IPC: 0.32887 (Simulation time: 0 hr 14 min 15 sec) 
Heartbeat CPU  2 instructions:  119000000 cycles:  205700309 heartbeat IPC: 0.33118 cumulative IPC: 0.36448 (Simulation time: 0 hr 14 min 17 sec) 
Heartbeat CPU  3 instructions:  117000003 cycles:  206532474 heartbeat IPC: 0.39418 cumulative IPC: 0.35736 (Simulation time: 0 hr 14 min 20 sec) 
Heartbeat CPU  0 instructions:  124000000 cycles:  206960423 heartbeat IPC: 0.40520 cumulative IPC: 0.37544 (Simulation time: 0 hr 14 min 21 sec) 
Heartbeat CPU  1 instructions:  112000000 cycles:  207047086 heartbeat IPC: 0.50384 cumulative IPC: 0.33072 (Simulation time: 0 hr 14 min 22 sec) 
Heartbeat CPU  2 instructions:  120000000 cycles:  208899845 heartbeat IPC: 0.31255 cumulative IPC: 0.36360 (Simulation time: 0 hr 14 min 27 sec) 
Heartbeat CPU  0 instructions:  125000001 cycles:  209528153 heartbeat IPC: 0.38945 cumulative IPC: 0.37563 (Simulation time: 0 hr 14 min 29 sec) 
Heartbeat CPU  3 instructions:  118000002 cycles:  209620683 heartbeat IPC: 0.32381 cumulative IPC: 0.35681 (Simulation time: 0 hr 14 min 29 sec) 
Heartbeat CPU  1 instructions:  113000001 cycles:  209641942 heartbeat IPC: 0.38538 cumulative IPC: 0.33147 (Simulation time: 0 hr 14 min 29 sec) 
Heartbeat CPU  2 instructions:  121000000 cycles:  211100988 heartbeat IPC: 0.45431 cumulative IPC: 0.36464 (Simulation time: 0 hr 14 min 33 sec) 
Heartbeat CPU  3 instructions:  119000000 cycles:  212450722 heartbeat IPC: 0.35335 cumulative IPC: 0.35676 (Simulation time: 0 hr 14 min 37 sec) 
Heartbeat CPU  0 instructions:  126000001 cycles:  212785707 heartbeat IPC: 0.30698 cumulative IPC: 0.37447 (Simulation time: 0 hr 14 min 38 sec) 
Heartbeat CPU  1 instructions:  114000001 cycles:  213168004 heartbeat IPC: 0.28360 cumulative IPC: 0.33060 (Simulation time: 0 hr 14 min 39 sec) 
Heartbeat CPU  2 instructions:  122000000 cycles:  213663850 heartbeat IPC: 0.39019 cumulative IPC: 0.36498 (Simulation time: 0 hr 14 min 41 sec) 
Heartbeat CPU  3 instructions:  120000000 cycles:  214970987 heartbeat IPC: 0.39678 cumulative IPC: 0.35728 (Simulation time: 0 hr 14 min 45 sec) 
Heartbeat CPU  0 instructions:  127000001 cycles:  215359556 heartbeat IPC: 0.38852 cumulative IPC: 0.37466 (Simulation time: 0 hr 14 min 46 sec) 
Heartbeat CPU  2 instructions:  123000002 cycles:  216233919 heartbeat IPC: 0.38910 cumulative IPC: 0.36529 (Simulation time: 0 hr 14 min 48 sec) 
Heartbeat CPU  1 instructions:  115000003 cycles:  216431968 heartbeat IPC: 0.30638 cumulative IPC: 0.33020 (Simulation time: 0 hr 14 min 49 sec) 
Heartbeat CPU  3 instructions:  121000002 cycles:  217852995 heartbeat IPC: 0.34698 cumulative IPC: 0.35713 (Simulation time: 0 hr 14 min 53 sec) 
Heartbeat CPU  0 instructions:  128000000 cycles:  217971433 heartbeat IPC: 0.38287 cumulative IPC: 0.37477 (Simulation time: 0 hr 14 min 54 sec) 
Heartbeat CPU  1 instructions:  116000000 cycles:  219149681 heartbeat IPC: 0.36796 cumulative IPC: 0.33071 (Simulation time: 0 hr 14 min 57 sec) 
Heartbeat CPU  2 instructions:  124000000 cycles:  219523214 heartbeat IPC: 0.30402 cumulative IPC: 0.36429 (Simulation time: 0 hr 14 min 59 sec) 
Heartbeat CPU  0 instructions:  129000000 cycles:  220361857 heartbeat IPC: 0.41834 cumulative IPC: 0.37528 (Simulation time: 0 hr 15 min 1 sec) 
Heartbeat CPU  3 instructions:  122000003 cycles:  220372158 heartbeat IPC: 0.39696 cumulative IPC: 0.35763 (Simulation time: 0 hr 15 min 1 sec) 
Heartbeat CPU  1 instructions:  117000002 cycles:  221829909 heartbeat IPC: 0.37310 cumulative IPC: 0.33127 (Simulation time: 0 hr 15 min 6 sec) 
Heartbeat CPU  2 instructions:  125000002 cycles:  221866711 heartbeat IPC: 0.42671 cumulative IPC: 0.36501 (Simulation time: 0 hr 15 min 6 sec) 
Heartbeat CPU  3 instructions:  123000003 cycles:  223505145 heartbeat IPC: 0.31918 cumulative IPC: 0.35704 (Simulation time: 0 hr 15 min 11 sec) 
Heartbeat CPU  0 instructions:  130000000 cycles:  223544417 heartbeat IPC: 0.31421 cumulative IPC: 0.37433 (Simulation time: 0 hr 15 min 11 sec) 
Heartbeat CPU  2 instructions:  126000000 cycles:  224206377 heartbeat IPC: 0.42741 cumulative IPC: 0.36572 (Simulation time: 0 hr 15 min 13 sec) 
Heartbeat CPU  1 instructions:  118000003 cycles:  224774599 heartbeat IPC: 0.33959 cumulative IPC: 0.33139 (Simulation time: 0 hr 15 min 15 sec) 
Heartbeat CPU  0 instructions:  131000003 cycles:  226059847 heartbeat IPC: 0.39755 cumulative IPC: 0.37461 (Simulation time: 0 hr 15 min 18 sec) 
Heartbeat CPU  2 instructions:  127000002 cycles:  226547996 heartbeat IPC: 0.42706 cumulative IPC: 0.36642 (Simulation time: 0 hr 15 min 20 sec) 
Heartbeat CPU  1 instructions:  119000002 cycles:  227971404 heartbeat IPC: 0.31281 cumulative IPC: 0.33111 (Simulation time: 0 hr 15 min 23 sec) 
Heartbeat CPU  3 instructions:  124000000 cycles:  228278833 heartbeat IPC: 0.20948 cumulative IPC: 0.35366 (Simulation time: 0 hr 15 min 24 sec) 
Heartbeat CPU  0 instructions:  132000000 cycles:  228649551 heartbeat IPC: 0.38614 cumulative IPC: 0.37476 (Simulation time: 0 hr 15 min 25 sec) 
Heartbeat CPU  2 instructions:  128000000 cycles:  229046668 heartbeat IPC: 0.40021 cumulative IPC: 0.36682 (Simulation time: 0 hr 15 min 26 sec) 
Heartbeat CPU  1 instructions:  120000000 cycles:  230748970 heartbeat IPC: 0.36003 cumulative IPC: 0.33149 (Simulation time: 0 hr 15 min 32 sec) 
Heartbeat CPU  3 instructions:  125000003 cycles:  231202117 heartbeat IPC: 0.34208 cumulative IPC: 0.35350 (Simulation time: 0 hr 15 min 33 sec) 
Heartbeat CPU  2 instructions:  129000002 cycles:  231380237 heartbeat IPC: 0.42853 cumulative IPC: 0.36750 (Simulation time: 0 hr 15 min 33 sec) 
Heartbeat CPU  0 instructions:  133000000 cycles:  231645631 heartbeat IPC: 0.33377 cumulative IPC: 0.37418 (Simulation time: 0 hr 15 min 34 sec) 
Heartbeat CPU  2 instructions:  130000000 cycles:  233769322 heartbeat IPC: 0.41857 cumulative IPC: 0.36807 (Simulation time: 0 hr 15 min 41 sec) 
Heartbeat CPU  1 instructions:  121000002 cycles:  234166530 heartbeat IPC: 0.29261 cumulative IPC: 0.33087 (Simulation time: 0 hr 15 min 42 sec) 
Heartbeat CPU  3 instructions:  126000001 cycles:  234366984 heartbeat IPC: 0.31597 cumulative IPC: 0.35295 (Simulation time: 0 hr 15 min 43 sec) 
Heartbeat CPU  0 instructions:  134000002 cycles:  234516744 heartbeat IPC: 0.34830 cumulative IPC: 0.37383 (Simulation time: 0 hr 15 min 43 sec) 
Heartbeat CPU  2 instructions:  131000001 cycles:  236135792 heartbeat IPC: 0.42257 cumulative IPC: 0.36866 (Simulation time: 0 hr 15 min 48 sec) 
Heartbeat CPU  1 instructions:  122000001 cycles:  236957231 heartbeat IPC: 0.35833 cumulative IPC: 0.33122 (Simulation time: 0 hr 15 min 50 sec) 
Heartbeat CPU  3 instructions:  127000001 cycles:  237155099 heartbeat IPC: 0.35867 cumulative IPC: 0.35302 (Simulation time: 0 hr 15 min 51 sec) 
Heartbeat CPU  0 instructions:  135000000 cycles:  237372836 heartbeat IPC: 0.35013 cumulative IPC: 0.37352 (Simulation time: 0 hr 15 min 51 sec) 
Heartbeat CPU  2 instructions:  132000000 cycles:  239333550 heartbeat IPC: 0.31272 cumulative IPC: 0.36785 (Simulation time: 0 hr 15 min 57 sec) 
Heartbeat CPU  1 instructions:  123000000 cycles:  239627653 heartbeat IPC: 0.37447 cumulative IPC: 0.33174 (Simulation time: 0 hr 15 min 58 sec) 
Heartbeat CPU  0 instructions:  136000000 cycles:  240319733 heartbeat IPC: 0.33934 cumulative IPC: 0.37307 (Simulation time: 0 hr 16 min 0 sec) 
Heartbeat CPU  3 instructions:  128000000 cycles:  240551475 heartbeat IPC: 0.29443 cumulative IPC: 0.35212 (Simulation time: 0 hr 16 min 1 sec) 
Heartbeat CPU  2 instructions:  133000001 cycles:  241943735 heartbeat IPC: 0.38311 cumulative IPC: 0.36803 (Simulation time: 0 hr 16 min 5 sec) 
Heartbeat CPU  1 instructions:  124000000 cycles:  242902250 heartbeat IPC: 0.30538 cumulative IPC: 0.33136 (Simulation time: 0 hr 16 min 7 sec) 
Heartbeat CPU  3 instructions:  129000000 cycles:  243101605 heartbeat IPC: 0.39214 cumulative IPC: 0.35258 (Simulation time: 0 hr 16 min 8 sec) 
[...]
Core_0_LLC_acc_level_2 48760
Core_0_LLC_acc_level_3 21151
Core_0_LLC_acc_level_4 7220
Core_0_LLC_acc_level_5 16663
Core_0_LLC_acc_level_6 4372
Core_0_LLC_acc_level_7 2488
Core_0_LLC_acc_level_8 1318
Core_0_LLC_acc_level_9 6676

Core_0_major_page_fault 0
Core_0_minor_page_fault 42870

Core_1_instructions 150000002
Core_1_cycles 453428525
Core_1_IPC 0.33081

Core_1_branch_prediction_accuracy 96.74825
Core_1_branch_MPKI 4.08973
Core_1_average_ROB_occupancy_at_mispredict 79.14157

Core_1_L1D_total_access 15212959
Core_1_L1D_total_hit 13651544
Core_1_L1D_total_miss 1561415
Core_1_L1D_loads 9915835
Core_1_L1D_load_hit 8562438
Core_1_L1D_load_miss 1353397
Core_1_L1D_RFOs 5297124
Core_1_L1D_RFO_hit 5089106
Core_1_L1D_RFO_miss 208018
Core_1_L1D_prefetches 0
Core_1_L1D_prefetch_hit 0
Core_1_L1D_prefetch_miss 0
Core_1_L1D_writebacks 0
Core_1_L1D_writeback_hit 0
Core_1_L1D_writeback_miss 0
Core_1_L1D_prefetch_requested 0
Core_1_L1D_prefetch_dropped 0
Core_1_L1D_prefetch_issued 0
Core_1_L1D_prefetch_filled 0
Core_1_L1D_prefetch_useful 0
Core_1_L1D_prefetch_useless 0
Core_1_L1D_prefetch_late 0
Core_1_L1D_average_miss_latency 150.80272

Core_1_L1D_rq_access 17799755
Core_1_L1D_rq_forward 0
Core_1_L1D_rq_merged 7505977
Core_1_L1D_rq_to_cache 10293504
Core_1_L1D_rq_full 0

Core_1_L1D_wq_access 6030660
Core_1_L1D_wq_forward 274
Core_1_L1D_wq_merged 116103
Core_1_L1D_wq_to_cache 5914557
Core_1_L1D_wq_full 15

Core_1_L1D_pq_access 0
Core_1_L1D_pq_forward 0
Core_1_L1D_pq_merged 0
Core_1_L1D_pq_to_cache 0
Core_1_L1D_pq_full 0

Core_1_L1D_acc_epochs 207631
Core_1_L1D_acc_level_0 207631
Core_1_L1D_acc_level_1 0
Core_1_L1D_acc_level_2 0
Core_1_L1D_acc_level_3 0
Core_1_L1D_acc_level_4 0
Core_1_L1D_acc_level_5 0
Core_1_L1D_acc_level_6 0
Core_1_L1D_acc_level_7 0
Core_1_L1D_acc_level_8 0
Core_1_L1D_acc_level_9 0

Core_1_L1I_total_access 30095158
Core_1_L1I_total_hit 29297177
Core_1_L1I_total_miss 797981
Core_1_L1I_loads 30095158
Core_1_L1I_load_hit 29297177
Core_1_L1I_load_miss 797981
Core_1_L1I_RFOs 0
Core_1_L1I_RFO_hit 0
Core_1_L1I_RFO_miss 0
Core_1_L1I_prefetches 0
Core_1_L1I_prefetch_hit 0
Core_1_L1I_prefetch_miss 0
Core_1_L1I_writebacks 0
Core_1_L1I_writeback_hit 0
Core_1_L1I_writeback_miss 0
Core_1_L1I_prefetch_requested 0
Core_1_L1I_prefetch_dropped 0
Core_1_L1I_prefetch_issued 0
Core_1_L1I_prefetch_filled 0
Core_1_L1I_prefetch_useful 0
Core_1_L1I_prefetch_useless 0
Core_1_L1I_prefetch_late 0
Core_1_L1I_average_miss_latency 69.68076

Core_1_L1I_rq_access 150000007
Core_1_L1I_rq_forward 0
Core_1_L1I_rq_merged 119476664
Core_1_L1I_rq_to_cache 30523343
Core_1_L1I_rq_full 0

Core_1_L1I_wq_access 0
Core_1_L1I_wq_forward 0
Core_1_L1I_wq_merged 0
Core_1_L1I_wq_to_cache 0
Core_1_L1I_wq_full 0

Core_1_L1I_pq_access 0
Core_1_L1I_pq_forward 0
Core_1_L1I_pq_merged 0
Core_1_L1I_pq_to_cache 0
Core_1_L1I_pq_full 0

Core_1_L1I_acc_epochs 207631
Core_1_L1I_acc_level_0 207631
Core_1_L1I_acc_level_1 0
Core_1_L1I_acc_level_2 0
Core_1_L1I_acc_level_3 0
Core_1_L1I_acc_level_4 0
Core_1_L1I_acc_level_5 0
Core_1_L1I_acc_level_6 0
Core_1_L1I_acc_level_7 0
Core_1_L1I_acc_level_8 0
Core_1_L1I_acc_level_9 0

Core_1_L2C_total_access 3943199
Core_1_L2C_total_hit 2072176
Core_1_L2C_total_miss 1871023
Core_1_L2C_loads 2151344
Core_1_L2C_load_hit 1118981
Core_1_L2C_load_miss 1032363
Core_1_L2C_RFOs 207981
Core_1_L2C_RFO_hit 45416
Core_1_L2C_RFO_miss 162565
Core_1_L2C_prefetches 1096978
Core_1_L2C_prefetch_hit 426540
Core_1_L2C_prefetch_miss 670438
Core_1_L2C_writebacks 486896
Core_1_L2C_writeback_hit 481239
Core_1_L2C_writeback_miss 5657
Core_1_L2C_prefetch_requested 2546535
Core_1_L2C_prefetch_dropped 0
Core_1_L2C_prefetch_issued 2546535
Core_1_L2C_prefetch_filled 878790
Core_1_L2C_prefetch_useful 692269
Core_1_L2C_prefetch_useless 186078
Core_1_L2C_prefetch_late 23401
Core_1_L2C_average_miss_latency 171.56644

Core_1_L2C_rq_access 2359396
Core_1_L2C_rq_forward 0
Core_1_L2C_rq_merged 0
Core_1_L2C_rq_to_cache 2359325
Core_1_L2C_rq_full 0

Core_1_L2C_wq_access 486896
Core_1_L2C_wq_forward 71
Core_1_L2C_wq_merged 0
Core_1_L2C_wq_to_cache 486896
Core_1_L2C_wq_full 0

Core_1_L2C_pq_access 2546535
Core_1_L2C_pq_forward 0
Core_1_L2C_pq_merged 14
Core_1_L2C_pq_to_cache 2546521
Core_1_L2C_pq_full 0

Core_1_L2C_acc_epochs 207631
Core_1_L2C_acc_level_0 39978
Core_1_L2C_acc_level_1 10281
Core_1_L2C_acc_level_2 10482
Core_1_L2C_acc_level_3 10430
Core_1_L2C_acc_level_4 9398
Core_1_L2C_acc_level_5 11964
Core_1_L2C_acc_level_6 10509
Core_1_L2C_acc_level_7 9834
Core_1_L2C_acc_level_8 9717
Core_1_L2C_acc_level_9 85038

Core_1_LLC_total_access 3043433
Core_1_LLC_total_hit 1556556
Core_1_LLC_total_miss 1486877
Core_1_LLC_loads 1009540
Core_1_LLC_load_hit 464051
Core_1_LLC_load_miss 545489
Core_1_LLC_RFOs 162555
Core_1_LLC_RFO_hit 55403
Core_1_LLC_RFO_miss 107152
Core_1_LLC_prefetches 1459986
Core_1_LLC_prefetch_hit 721272
Core_1_LLC_prefetch_miss 738714
Core_1_LLC_writebacks 411352
Core_1_LLC_writeback_hit 315830
Core_1_LLC_writeback_miss 95522
Core_1_LLC_prefetch_requested 0
Core_1_LLC_prefetch_dropped 0
Core_1_LLC_prefetch_issued 0
Core_1_LLC_prefetch_filled 4303632
Core_1_LLC_prefetch_useful 393178
Core_1_LLC_prefetch_useless 3859109
Core_1_LLC_prefetch_late 4183
Core_1_LLC_average_miss_latency 851.45102

Core_1_LLC_rq_access 4497350
Core_1_LLC_rq_forward 0
Core_1_LLC_rq_merged 0
Core_1_LLC_rq_to_cache 4497330
Core_1_LLC_rq_full 0

Core_1_LLC_wq_access 1523739
Core_1_LLC_wq_forward 23
Core_1_LLC_wq_merged 0
Core_1_LLC_wq_to_cache 1523739
Core_1_LLC_wq_full 0

Core_1_LLC_pq_access 8031182
Core_1_LLC_pq_forward 0
Core_1_LLC_pq_merged 0
Core_1_LLC_pq_to_cache 8031179
Core_1_LLC_pq_full 0

Core_1_LLC_acc_epochs 461922
Core_1_LLC_acc_level_0 256707
Core_1_LLC_acc_level_1 96567
Core_1_LLC_acc_level_2 48760
Core_1_LLC_acc_level_3 21151
Core_1_LLC_acc_level_4 7220
Core_1_LLC_acc_level_5 16663
Core_1_LLC_acc_level_6 4372
Core_1_LLC_acc_level_7 2488
Core_1_LLC_acc_level_8 1318
Core_1_LLC_acc_level_9 6676

Core_1_major_page_fault 0
Core_1_minor_page_fault 45763

Core_2_instructions 150000002
Core_2_cycles 408488272
Core_2_IPC 0.36721

Core_2_branch_prediction_accuracy 97.85611
Core_2_branch_MPKI 2.64445
Core_2_average_ROB_occupancy_at_mispredict 100.73506

Core_2_L1D_total_access 14360190
Core_2_L1D_total_hit 13029445
Core_2_L1D_total_miss 1330745
Core_2_L1D_loads 9529705
Core_2_L1D_load_hit 8339510
Core_2_L1D_load_miss 1190195
Core_2_L1D_RFOs 4830485
Core_2_L1D_RFO_hit 4689935
Core_2_L1D_RFO_miss 140550
Core_2_L1D_prefetches 0
Core_2_L1D_prefetch_hit 0
Core_2_L1D_prefetch_miss 0
Core_2_L1D_writebacks 0
Core_2_L1D_writeback_hit 0
Core_2_L1D_writeback_miss 0
Core_2_L1D_prefetch_requested 0
Core_2_L1D_prefetch_dropped 0
Core_2_L1D_prefetch_issued 0
Core_2_L1D_prefetch_filled 0
Core_2_L1D_prefetch_useful 0
Core_2_L1D_prefetch_useless 0
Core_2_L1D_prefetch_late 0
Core_2_L1D_average_miss_latency 177.01761

Core_2_L1D_rq_access 19119931
Core_2_L1D_rq_forward 0
Core_2_L1D_rq_merged 8155316
Core_2_L1D_rq_to_cache 10964248
Core_2_L1D_rq_full 0

Core_2_L1D_wq_access 5965246
Core_2_L1D_wq_forward 367
Core_2_L1D_wq_merged 121118
Core_2_L1D_wq_to_cache 5844128
Core_2_L1D_wq_full 0

Core_2_L1D_pq_access 0
Core_2_L1D_pq_forward 0
Core_2_L1D_pq_merged 0
Core_2_L1D_pq_to_cache 0
Core_2_L1D_pq_full 0

Core_2_L1D_acc_epochs 212758
Core_2_L1D_acc_level_0 212758
Core_2_L1D_acc_level_1 0
Core_2_L1D_acc_level_2 0
Core_2_L1D_acc_level_3 0
Core_2_L1D_acc_level_4 0
Core_2_L1D_acc_level_5 0
Core_2_L1D_acc_level_6 0
Core_2_L1D_acc_level_7 0
Core_2_L1D_acc_level_8 0
Core_2_L1D_acc_level_9 0

Core_2_L1I_total_access 30288585
Core_2_L1I_total_hit 29925288
Core_2_L1I_total_miss 363297
Core_2_L1I_loads 30288585
Core_2_L1I_load_hit 29925288
Core_2_L1I_load_miss 363297
Core_2_L1I_RFOs 0
Core_2_L1I_RFO_hit 0
Core_2_L1I_RFO_miss 0
Core_2_L1I_prefetches 0
Core_2_L1I_prefetch_hit 0
Core_2_L1I_prefetch_miss 0
Core_2_L1I_writebacks 0
Core_2_L1I_writeback_hit 0
Core_2_L1I_writeback_miss 0
Core_2_L1I_prefetch_requested 0
Core_2_L1I_prefetch_dropped 0
Core_2_L1I_prefetch_issued 0
Core_2_L1I_prefetch_filled 0
Core_2_L1I_prefetch_useful 0
Core_2_L1I_prefetch_useless 0
Core_2_L1I_prefetch_late 0
Core_2_L1I_average_miss_latency 92.64939

Core_2_L1I_rq_access 165927335
Core_2_L1I_rq_forward 0
Core_2_L1I_rq_merged 132224160
Core_2_L1I_rq_to_cache 33703175
Core_2_L1I_rq_full 0

Core_2_L1I_wq_access 0
Core_2_L1I_wq_forward 0
Core_2_L1I_wq_merged 0
Core_2_L1I_wq_to_cache 0
Core_2_L1I_wq_full 0

Core_2_L1I_pq_access 0
Core_2_L1I_pq_forward 0
Core_2_L1I_pq_merged 0
Core_2_L1I_pq_to_cache 0
Core_2_L1I_pq_full 0

Core_2_L1I_acc_epochs 212758
Core_2_L1I_acc_level_0 212758
Core_2_L1I_acc_level_1 0
Core_2_L1I_acc_level_2 0
Core_2_L1I_acc_level_3 0
Core_2_L1I_acc_level_4 0
Core_2_L1I_acc_level_5 0
Core_2_L1I_acc_level_6 0
Core_2_L1I_acc_level_7 0
Core_2_L1I_acc_level_8 0
Core_2_L1I_acc_level_9 0

Core_2_L2C_total_access 2796776
Core_2_L2C_total_hit 1196191
Core_2_L2C_total_miss 1600585
Core_2_L2C_loads 1553486
Core_2_L2C_load_hit 636282
Core_2_L2C_load_miss 917204
Core_2_L2C_RFOs 140522
Core_2_L2C_RFO_hit 20244
Core_2_L2C_RFO_miss 120278
Core_2_L2C_prefetches 729867
Core_2_L2C_prefetch_hit 168681
Core_2_L2C_prefetch_miss 561186
Core_2_L2C_writebacks 372901
Core_2_L2C_writeback_hit 370984
Core_2_L2C_writeback_miss 1917
Core_2_L2C_prefetch_requested 2389598
Core_2_L2C_prefetch_dropped 0
Core_2_L2C_prefetch_issued 2389598
Core_2_L2C_prefetch_filled 833653
Core_2_L2C_prefetch_useful 637133
Core_2_L2C_prefetch_useless 196463
Core_2_L2C_prefetch_late 23377
Core_2_L2C_average_miss_latency 202.12292

Core_2_L2C_rq_access 1883634
Core_2_L2C_rq_forward 0
Core_2_L2C_rq_merged 0
Core_2_L2C_rq_to_cache 1883594
Core_2_L2C_rq_full 0

Core_2_L2C_wq_access 413235
Core_2_L2C_wq_forward 42
Core_2_L2C_wq_merged 0
Core_2_L2C_wq_to_cache 413235
Core_2_L2C_wq_full 0

Core_2_L2C_pq_access 2389598
Core_2_L2C_pq_forward 0
Core_2_L2C_pq_merged 0
Core_2_L2C_pq_to_cache 2389596
Core_2_L2C_pq_full 0

Core_2_L2C_acc_epochs 212758
Core_2_L2C_acc_level_0 38837
Core_2_L2C_acc_level_1 9643
Core_2_L2C_acc_level_2 10301
Core_2_L2C_acc_level_3 10757
Core_2_L2C_acc_level_4 9965
Core_2_L2C_acc_level_5 12290
Core_2_L2C_acc_level_6 11039
Core_2_L2C_acc_level_7 10216
Core_2_L2C_acc_level_8 10200
Core_2_L2C_acc_level_9 89510

Core_2_LLC_total_access 2779827
Core_2_LLC_total_hit 1334775
Core_2_LLC_total_miss 1445052
Core_2_LLC_loads 896095
Core_2_LLC_load_hit 392193
Core_2_LLC_load_miss 503902
Core_2_LLC_RFOs 120269
Core_2_LLC_RFO_hit 27977
Core_2_LLC_RFO_miss 92292
Core_2_LLC_prefetches 1419159
Core_2_LLC_prefetch_hit 664544
Core_2_LLC_prefetch_miss 754615
Core_2_LLC_writebacks 344304
Core_2_LLC_writeback_hit 250061
Core_2_LLC_writeback_miss 94243
Core_2_LLC_prefetch_requested 0
Core_2_LLC_prefetch_dropped 0
Core_2_LLC_prefetch_issued 0
Core_2_LLC_prefetch_filled 4303632
Core_2_LLC_prefetch_useful 393178
Core_2_LLC_prefetch_useless 3859109
Core_2_LLC_prefetch_late 4183
Core_2_LLC_average_miss_latency 876.09508

Core_2_LLC_rq_access 4497350
Core_2_LLC_rq_forward 0
Core_2_LLC_rq_merged 0
Core_2_LLC_rq_to_cache 4497330
Core_2_LLC_rq_full 0

Core_2_LLC_wq_access 1523739
Core_2_LLC_wq_forward 23
Core_2_LLC_wq_merged 0
Core_2_LLC_wq_to_cache 1523739
Core_2_LLC_wq_full 0

Core_2_LLC_pq_access 8031182
Core_2_LLC_pq_forward 0
Core_2_LLC_pq_merged 0
Core_2_LLC_pq_to_cache 8031179
Core_2_LLC_pq_full 0

Core_2_LLC_acc_epochs 461922
Core_2_LLC_acc_level_0 256707
Core_2_LLC_acc_level_1 96567
Core_2_LLC_acc_level_2 48760
Core_2_LLC_acc_level_3 21151
Core_2_LLC_acc_level_4 7220
Core_2_LLC_acc_level_5 16663
Core_2_LLC_acc_level_6 4372
Core_2_LLC_acc_level_7 2488
Core_2_LLC_acc_level_8 1318
Core_2_LLC_acc_level_9 6676

Core_2_major_page_fault 0
Core_2_minor_page_fault 44983

Core_3_instructions 150000001
Core_3_cycles 422689371
Core_3_IPC 0.35487

Core_3_branch_prediction_accuracy 97.77672
Core_3_branch_MPKI 2.74163
Core_3_average_ROB_occupancy_at_mispredict 98.53767

Core_3_L1D_total_access 14827286
Core_3_L1D_total_hit 13477886
Core_3_L1D_total_miss 1349400
Core_3_L1D_loads 9769182
Core_3_L1D_load_hit 8567448
Core_3_L1D_load_miss 1201734
Core_3_L1D_RFOs 5058104
Core_3_L1D_RFO_hit 4910438
Core_3_L1D_RFO_miss 147666
Core_3_L1D_prefetches 0
Core_3_L1D_prefetch_hit 0
Core_3_L1D_prefetch_miss 0
Core_3_L1D_writebacks 0
Core_3_L1D_writeback_hit 0
Core_3_L1D_writeback_miss 0
Core_3_L1D_prefetch_requested 0
Core_3_L1D_prefetch_dropped 0
Core_3_L1D_prefetch_issued 0
Core_3_L1D_prefetch_filled 0
Core_3_L1D_prefetch_useful 0
Core_3_L1D_prefetch_useless 0
Core_3_L1D_prefetch_late 0
Core_3_L1D_average_miss_latency 172.32038

Core_3_L1D_rq_access 18832703
Core_3_L1D_rq_forward 0
Core_3_L1D_rq_merged 7982382
Core_3_L1D_rq_to_cache 10848952
Core_3_L1D_rq_full 0

Core_3_L1D_wq_access 6042706
Core_3_L1D_wq_forward 1369
Core_3_L1D_wq_merged 126268
Core_3_L1D_wq_to_cache 5916438
Core_3_L1D_wq_full 0

Core_3_L1D_pq_access 0
Core_3_L1D_pq_forward 0
Core_3_L1D_pq_merged 0
Core_3_L1D_pq_to_cache 0
Core_3_L1D_pq_full 0

Core_3_L1D_acc_epochs 210130
Core_3_L1D_acc_level_0 210130
Core_3_L1D_acc_level_1 0
Core_3_L1D_acc_level_2 0
Core_3_L1D_acc_level_3 0
Core_3_L1D_acc_level_4 0
Core_3_L1D_acc_level_5 0
Core_3_L1D_acc_level_6 0
Core_3_L1D_acc_level_7 0
Core_3_L1D_acc_level_8 0
Core_3_L1D_acc_level_9 0

Core_3_L1I_total_access 30527065
Core_3_L1I_total_hit 30113500
Core_3_L1I_total_miss 413565
Core_3_L1I_loads 30527065
Core_3_L1I_load_hit 30113500
Core_3_L1I_load_miss 413565
Core_3_L1I_RFOs 0
Core_3_L1I_RFO_hit 0
Core_3_L1I_RFO_miss 0
Core_3_L1I_prefetches 0
Core_3_L1I_prefetch_hit 0
Core_3_L1I_prefetch_miss 0
Core_3_L1I_writebacks 0
Core_3_L1I_writeback_hit 0
Core_3_L1I_writeback_miss 0
Core_3_L1I_prefetch_requested 0
Core_3_L1I_prefetch_dropped 0
Core_3_L1I_prefetch_issued 0
Core_3_L1I_prefetch_filled 0
Core_3_L1I_prefetch_useful 0
Core_3_L1I_prefetch_useless 0
Core_3_L1I_prefetch_late 0
Core_3_L1I_average_miss_latency 86.59903

Core_3_L1I_rq_access 160948569
Core_3_L1I_rq_forward 0
Core_3_L1I_rq_merged 127977947
Core_3_L1I_rq_to_cache 32970622
Core_3_L1I_rq_full 0

Core_3_L1I_wq_access 0
Core_3_L1I_wq_forward 0
Core_3_L1I_wq_merged 0
Core_3_L1I_wq_to_cache 0
Core_3_L1I_wq_full 0

Core_3_L1I_pq_access 0
Core_3_L1I_pq_forward 0
Core_3_L1I_pq_merged 0
Core_3_L1I_pq_to_cache 0
Core_3_L1I_pq_full 0

Core_3_L1I_acc_epochs 210130
Core_3_L1I_acc_level_0 210130
Core_3_L1I_acc_level_1 0
Core_3_L1I_acc_level_2 0
Core_3_L1I_acc_level_3 0
Core_3_L1I_acc_level_4 0
Core_3_L1I_acc_level_5 0
Core_3_L1I_acc_level_6 0
Core_3_L1I_acc_level_7 0
Core_3_L1I_acc_level_8 0
Core_3_L1I_acc_level_9 0

Core_3_L2C_total_access 2882226
Core_3_L2C_total_hit 1256659
Core_3_L2C_total_miss 1625567
Core_3_L2C_loads 1615285
Core_3_L2C_load_hit 674454
Core_3_L2C_load_miss 940831
Core_3_L2C_RFOs 147635
Core_3_L2C_RFO_hit 23469
Core_3_L2C_RFO_miss 124166
Core_3_L2C_prefetches 736555
Core_3_L2C_prefetch_hit 178357
Core_3_L2C_prefetch_miss 558198
Core_3_L2C_writebacks 382751
Core_3_L2C_writeback_hit 380379
Core_3_L2C_writeback_miss 2372
Core_3_L2C_prefetch_requested 2324042
Core_3_L2C_prefetch_dropped 0
Core_3_L2C_prefetch_issued 2324042
Core_3_L2C_prefetch_filled 814679
Core_3_L2C_prefetch_useful 625431
Core_3_L2C_prefetch_useless 188976
Core_3_L2C_prefetch_late 21745
Core_3_L2C_average_miss_latency 193.39183

Core_3_L2C_rq_access 1886511
Core_3_L2C_rq_forward 0
Core_3_L2C_rq_merged 0
Core_3_L2C_rq_to_cache 1886464
Core_3_L2C_rq_full 0

Core_3_L2C_wq_access 410245
Core_3_L2C_wq_forward 48
Core_3_L2C_wq_merged 0
Core_3_L2C_wq_to_cache 410245
Core_3_L2C_wq_full 0

Core_3_L2C_pq_access 2324042
Core_3_L2C_pq_forward 0
Core_3_L2C_pq_merged 0
Core_3_L2C_pq_to_cache 2324041
Core_3_L2C_pq_full 0

Core_3_L2C_acc_epochs 210130
Core_3_L2C_acc_level_0 42417
Core_3_L2C_acc_level_1 9262
Core_3_L2C_acc_level_2 9533
Core_3_L2C_acc_level_3 10092
Core_3_L2C_acc_level_4 9110
Core_3_L2C_acc_level_5 11276
Core_3_L2C_acc_level_6 10513
Core_3_L2C_acc_level_7 9894
Core_3_L2C_acc_level_8 9706
Core_3_L2C_acc_level_9 88327

Core_3_LLC_total_access 2782469
Core_3_LLC_total_hit 1326771
Core_3_LLC_total_miss 1455698
Core_3_LLC_loads 921170
Core_3_LLC_load_hit 402255
Core_3_LLC_load_miss 518915
Core_3_LLC_RFOs 124161
Core_3_LLC_RFO_hit 34358
Core_3_LLC_RFO_miss 89803
Core_3_LLC_prefetches 1388504
Core_3_LLC_prefetch_hit 635061
Core_3_LLC_prefetch_miss 753443
Core_3_LLC_writebacks 348634
Core_3_LLC_writeback_hit 255097
Core_3_LLC_writeback_miss 93537
Core_3_LLC_prefetch_requested 0
Core_3_LLC_prefetch_dropped 0
Core_3_LLC_prefetch_issued 0
Core_3_LLC_prefetch_filled 4303632
Core_3_LLC_prefetch_useful 393178
Core_3_LLC_prefetch_useless 3859109
Core_3_LLC_prefetch_late 4183
Core_3_LLC_average_miss_latency 869.68791

Core_3_LLC_rq_access 4497350
Core_3_LLC_rq_forward 0
Core_3_LLC_rq_merged 0
Core_3_LLC_rq_to_cache 4497330
Core_3_LLC_rq_full 0

Core_3_LLC_wq_access 1523739
Core_3_LLC_wq_forward 23
Core_3_LLC_wq_merged 0
Core_3_LLC_wq_to_cache 1523739
Core_3_LLC_wq_full 0

Core_3_LLC_pq_access 8031182
Core_3_LLC_pq_forward 0
Core_3_LLC_pq_merged 0
Core_3_LLC_pq_to_cache 8031179
Core_3_LLC_pq_full 0

Core_3_LLC_acc_epochs 461922
Core_3_LLC_acc_level_0 256707
Core_3_LLC_acc_level_1 96567
Core_3_LLC_acc_level_2 48760
Core_3_LLC_acc_level_3 21151
Core_3_LLC_acc_level_4 7220
Core_3_LLC_acc_level_5 16663
Core_3_LLC_acc_level_6 4372
Core_3_LLC_acc_level_7 2488
Core_3_LLC_acc_level_8 1318
Core_3_LLC_acc_level_9 6676

Core_3_major_page_fault 0
Core_3_minor_page_fault 44691

[Bingo] PHT Access: 845210
[Bingo] PHT Hit PC+Addr: 123084
[Bingo] PHT Hit PC+Offs: 474275
[Bingo] PHT Miss: 247851
[Bingo] Prefetch PC+Addr: 0
[Bingo] Prefetch PC+Offs: 0
[Bingo] Useful PC+Addr: 0
[Bingo] Useful PC+Offs: 0
[Bingo] Useless PC+Addr: 0
[Bingo] Useless PC+Offs: 0
[Bingo] L1 Prefetch per Region: 0.00000
[Bingo] L2 Prefetch per Region: 2.76057
[Bingo] L3 Prefetch per Region: 2.19320
[Bingo] No Prefetch per Region: 27.04623
[Bingo] Number of Voters Mean: 6.85248
[Bingo] Number of Voters SD: 5.02774

[Bingo] PHT Access: 965966
[Bingo] PHT Hit PC+Addr: 234206
[Bingo] PHT Hit PC+Offs: 387831
[Bingo] PHT Miss: 343929
[Bingo] Prefetch PC+Addr: 0
[Bingo] Prefetch PC+Offs: 0
[Bingo] Useful PC+Addr: 0
[Bingo] Useful PC+Offs: 0
[Bingo] Useless PC+Addr: 0
[Bingo] Useless PC+Offs: 0
[Bingo] L1 Prefetch per Region: 0.00000
[Bingo] L2 Prefetch per Region: 3.38623
[Bingo] L3 Prefetch per Region: 1.71346
[Bingo] No Prefetch per Region: 26.90030
[Bingo] Number of Voters Mean: 6.81727
[Bingo] Number of Voters SD: 5.00177

[Bingo] PHT Access: 865135
[Bingo] PHT Hit PC+Addr: 150032
[Bingo] PHT Hit PC+Offs: 448686
[Bingo] PHT Miss: 266417
[Bingo] Prefetch PC+Addr: 0
[Bingo] Prefetch PC+Offs: 0
[Bingo] Useful PC+Addr: 0
[Bingo] Useful PC+Offs: 0
[Bingo] Useless PC+Addr: 0
[Bingo] Useless PC+Offs: 0
[Bingo] L1 Prefetch per Region: 0.00000
[Bingo] L2 Prefetch per Region: 2.91947
[Bingo] L3 Prefetch per Region: 2.07808
[Bingo] No Prefetch per Region: 27.00245
[Bingo] Number of Voters Mean: 6.69936
[Bingo] Number of Voters SD: 4.80430

[Bingo] PHT Access: 851007
[Bingo] PHT Hit PC+Addr: 153816
[Bingo] PHT Hit PC+Offs: 429388
[Bingo] PHT Miss: 267803
[Bingo] Prefetch PC+Addr: 0
[Bingo] Prefetch PC+Offs: 0
[Bingo] Useful PC+Addr: 0
[Bingo] Useful PC+Offs: 0
[Bingo] Useless PC+Addr: 0
[Bingo] Useless PC+Offs: 0
[Bingo] L1 Prefetch per Region: 0.00000
[Bingo] L2 Prefetch per Region: 2.95872
[Bingo] L3 Prefetch per Region: 2.03102
[Bingo] No Prefetch per Region: 27.01026
[Bingo] Number of Voters Mean: 7.19386
[Bingo] Number of Voters SD: 4.97344

Channel_0_RQ_row_buffer_hit 517737
Channel_0_RQ_row_buffer_miss 2433180
Channel_0_WQ_row_buffer_hit 96707
Channel_0_WQ_row_buffer_miss 545213
Channel_0_WQ_full 0
Channel_0_dbus_congested 1400751

Channel_1_RQ_row_buffer_hit 495459
Channel_1_RQ_row_buffer_miss 2438300
Channel_1_WQ_row_buffer_hit 96050
Channel_1_WQ_row_buffer_miss 544067
Channel_1_WQ_full 0
Channel_1_dbus_congested 1366123

avg_congested_cycle 10

DRAM_bw_pochs 1847685
DRAM_bw_level_0 1572141
DRAM_bw_level_1 190106
DRAM_bw_level_2 45314
DRAM_bw_level_3 40124
