*************************************************
   ChampSim Multicore Out-of-Order Simulator
   Last compiled: Mar 31 2025 20:14:32
*************************************************
parsing config file: /data3/config/spp_ppf_dev.ini

trace_0 /data3/CASSANDRA/traces/cassandra_phase4_core0.trace.xz
trace_1 /data3/CASSANDRA/traces/cassandra_phase4_core1.trace.xz
trace_2 /data3/CASSANDRA/traces/cassandra_phase4_core2.trace.xz
trace_3 /data3/CASSANDRA/traces/cassandra_phase4_core3.trace.xz
adding L2C_PREFETCHER: SPP_PPF_dev
Initialize SIGNATURE TABLE
ST_SET: 1
ST_WAY: 256
ST_TAG_BIT: 16
ST_TAG_MASK: ffff

Initialize PATTERN TABLE
PT_SET: 2048
PT_WAY: 4
SIG_DELTA_BIT: 7
C_SIG_BIT: 4
C_DELTA_BIT: 4

Initialize PREFETCH FILTER
FILTER_SET: 1024

Initialize PERCEPTRON
PERC_ENTRIES: 4096
PERC_FEATURES: 9
Initialize SIGNATURE TABLE
ST_SET: 1
ST_WAY: 256
ST_TAG_BIT: 16
ST_TAG_MASK: ffff

Initialize PATTERN TABLE
PT_SET: 2048
PT_WAY: 4
SIG_DELTA_BIT: 7
C_SIG_BIT: 4
C_DELTA_BIT: 4

Initialize PREFETCH FILTER
FILTER_SET: 1024

Initialize PERCEPTRON
PERC_ENTRIES: 4096
PERC_FEATURES: 9
PERC_THRESH_HI: -5
PERC_THRESH_LO: -15

adding L2C_PREFETCHER: SPP_PPF_dev
Initialize SIGNATURE TABLE
ST_SET: 1
ST_WAY: 256
ST_TAG_BIT: 16
ST_TAG_MASK: ffff

Initialize PATTERN TABLE
PT_SET: 2048
PT_WAY: 4
SIG_DELTA_BIT: 7
C_SIG_BIT: 4
C_DELTA_BIT: 4

Initialize PREFETCH FILTER
FILTER_SET: 1024

Initialize PERCEPTRON
PERC_ENTRIES: 4096
PERC_FEATURES: 9
Initialize SIGNATURE TABLE
ST_SET: 1
ST_WAY: 256
ST_TAG_BIT: 16
ST_TAG_MASK: ffff

Initialize PATTERN TABLE
PT_SET: 2048
PT_WAY: 4
SIG_DELTA_BIT: 7
C_SIG_BIT: 4
C_DELTA_BIT: 4

Initialize PREFETCH FILTER
FILTER_SET: 1024

Initialize PERCEPTRON
PERC_ENTRIES: 4096
PERC_FEATURES: 9
PERC_THRESH_HI: -5
PERC_THRESH_LO: -15

adding L2C_PREFETCHER: SPP_PPF_dev
Initialize SIGNATURE TABLE
ST_SET: 1
ST_WAY: 256
ST_TAG_BIT: 16
ST_TAG_MASK: ffff

Initialize PATTERN TABLE
PT_SET: 2048
PT_WAY: 4
SIG_DELTA_BIT: 7
C_SIG_BIT: 4
C_DELTA_BIT: 4

Initialize PREFETCH FILTER
FILTER_SET: 1024

Initialize PERCEPTRON
PERC_ENTRIES: 4096
PERC_FEATURES: 9
Initialize SIGNATURE TABLE
ST_SET: 1
ST_WAY: 256
ST_TAG_BIT: 16
ST_TAG_MASK: ffff

Initialize PATTERN TABLE
PT_SET: 2048
PT_WAY: 4
SIG_DELTA_BIT: 7
C_SIG_BIT: 4
C_DELTA_BIT: 4

Initialize PREFETCH FILTER
FILTER_SET: 1024

Initialize PERCEPTRON
PERC_ENTRIES: 4096
PERC_FEATURES: 9
PERC_THRESH_HI: -5
PERC_THRESH_LO: -15

adding L2C_PREFETCHER: SPP_PPF_dev
Initialize SIGNATURE TABLE
ST_SET: 1
ST_WAY: 256
ST_TAG_BIT: 16
ST_TAG_MASK: ffff

Initialize PATTERN TABLE
PT_SET: 2048
PT_WAY: 4
SIG_DELTA_BIT: 7
C_SIG_BIT: 4
C_DELTA_BIT: 4

Initialize PREFETCH FILTER
FILTER_SET: 1024

Initialize PERCEPTRON
PERC_ENTRIES: 4096
PERC_FEATURES: 9
Initialize SIGNATURE TABLE
ST_SET: 1
ST_WAY: 256
ST_TAG_BIT: 16
ST_TAG_MASK: ffff

Initialize PATTERN TABLE
PT_SET: 2048
PT_WAY: 4
SIG_DELTA_BIT: 7
C_SIG_BIT: 4
C_DELTA_BIT: 4

Initialize PREFETCH FILTER
FILTER_SET: 1024

Initialize PERCEPTRON
PERC_ENTRIES: 4096
PERC_FEATURES: 9
PERC_THRESH_HI: -5
PERC_THRESH_LO: -15

Initialize SHIP state
warmup_instructions 50000000
simulation_instructions 150000000
champsim_seed 8758
measure_ipc 0
measure_ipc_epoch 1000
measure_dram_bw 1
measure_dram_bw_epoch 256
measure_cache_acc 1
measure_cache_acc_epoch 1024
l1d_perfect 0
l2c_perfect 0
llc_perfect 0
l1d_semi_perfect 0
l2c_semi_perfect 0
llc_semi_perfect 0
semi_perfect_cache_page_buffer_size 64

num_cpus 4
cpu_freq 4000
dram_io_freq 2400
page_size 4096
block_size 64
max_read_per_cycle 8
max_fill_per_cycle 1
dram_channels 2
log2_dram_channels 1
dram_ranks 1
dram_banks 8
dram_rows 65536
dram_columns 128
dram_row_size 8
dram_size 8192
dram_pages 2097152

fetch_width 6
decode_width 6
exec_width 4
lq_width 2
sq_width 2
retire_width 4
scheduler_size 128
branch_mispredict_penalty 20
rob_size 256
lq_size 72
sq_size 56
num_instr_destinations_sparc 4
num_instr_destinations 2
num_instr_sources 4

itlb_set 16
itlb_way 8
itlb_rq_size 16
itlb_wq_size 16
itlb_pq_size 0
itlb_mshr_size 8
itlb_latency 1

dtlb_set 16
dtlb_way 4
dtlb_rq_size 16
dtlb_wq_size 16
dtlb_pq_size 0
dtlb_mshr_size 8
dtlb_latency 1

stlb_set 128
stlb_way 12
stlb_rq_size 32
stlb_wq_size 32
stlb_pq_size 0
stlb_mshr_size 16
stlb_latency 8

l1i_size 32
l1i_set 64
l1i_way 8
l1i_rq_size 64
l1i_wq_size 64
l1i_pq_size 8
l1i_mshr_size 8
l1i_latency 1

l1d_size 32
l1d_set 64
l1d_way 8
l1d_rq_size 64
l1d_wq_size 64
l1d_pq_size 8
l1d_mshr_size 16
l1d_latency 4

l2c_size 256
l2c_set 512
l2c_way 8
l2c_rq_size 32
l2c_wq_size 32
l2c_pq_size 32
l2c_mshr_size 32
l2c_latency 10

llc_size 8192
llc_set 8192
llc_way 16
llc_rq_size 128
llc_wq_size 128
llc_pq_size 128
llc_mshr_size 256
llc_latency 20

dram_channel_width 8
dram_wq_size 64
dram_rq_size 64
tRP 15
tRCD 15
tCAS 12.5
dram_dbus_turn_around_time 30
dram_write_high_wm 56
dram_write_low_wm 48
min_dram_writes_per_switch 16
dram_mtps 2400
dram_dbus_return_time 13


Heartbeat CPU  2 instructions:    1000002 cycles:     330273 heartbeat IPC: 3.02780 cumulative IPC: 3.02780 (Simulation time: 0 hr 0 min 6 sec) 
Heartbeat CPU  1 instructions:    1000001 cycles:     336106 heartbeat IPC: 2.97525 cumulative IPC: 2.97525 (Simulation time: 0 hr 0 min 6 sec) 
Heartbeat CPU  3 instructions:    1000002 cycles:     336212 heartbeat IPC: 2.97432 cumulative IPC: 2.97432 (Simulation time: 0 hr 0 min 6 sec) 
Heartbeat CPU  0 instructions:    1000000 cycles:     508107 heartbeat IPC: 1.96809 cumulative IPC: 1.96809 (Simulation time: 0 hr 0 min 9 sec) 
Heartbeat CPU  1 instructions:    2000000 cycles:     647512 heartbeat IPC: 3.21124 cumulative IPC: 3.08875 (Simulation time: 0 hr 0 min 11 sec) 
Heartbeat CPU  2 instructions:    2000003 cycles:     655723 heartbeat IPC: 3.07267 cumulative IPC: 3.05007 (Simulation time: 0 hr 0 min 11 sec) 
Heartbeat CPU  3 instructions:    2000002 cycles:     658993 heartbeat IPC: 3.09808 cumulative IPC: 3.03494 (Simulation time: 0 hr 0 min 11 sec) 
Heartbeat CPU  0 instructions:    2000003 cycles:     969477 heartbeat IPC: 2.16746 cumulative IPC: 2.06297 (Simulation time: 0 hr 0 min 16 sec) 
Heartbeat CPU  3 instructions:    3000001 cycles:     982719 heartbeat IPC: 3.08903 cumulative IPC: 3.05276 (Simulation time: 0 hr 0 min 16 sec) 
Heartbeat CPU  1 instructions:    3000001 cycles:    1064845 heartbeat IPC: 2.39617 cumulative IPC: 2.81731 (Simulation time: 0 hr 0 min 18 sec) 
Heartbeat CPU  2 instructions:    3000002 cycles:    1238494 heartbeat IPC: 1.71594 cumulative IPC: 2.42230 (Simulation time: 0 hr 0 min 20 sec) 
Heartbeat CPU  0 instructions:    3000002 cycles:    1294550 heartbeat IPC: 3.07623 cumulative IPC: 2.31741 (Simulation time: 0 hr 0 min 21 sec) 
Heartbeat CPU  3 instructions:    4000000 cycles:    1347106 heartbeat IPC: 2.74433 cumulative IPC: 2.96933 (Simulation time: 0 hr 0 min 21 sec) 
Heartbeat CPU  1 instructions:    4000000 cycles:    1571402 heartbeat IPC: 1.97411 cumulative IPC: 2.54550 (Simulation time: 0 hr 0 min 25 sec) 
Heartbeat CPU  0 instructions:    4000000 cycles:    1617434 heartbeat IPC: 3.09708 cumulative IPC: 2.47305 (Simulation time: 0 hr 0 min 26 sec) 
Heartbeat CPU  2 instructions:    4000000 cycles:    1655911 heartbeat IPC: 2.39568 cumulative IPC: 2.41559 (Simulation time: 0 hr 0 min 26 sec) 
Heartbeat CPU  1 instructions:    5000000 cycles:    1900952 heartbeat IPC: 3.03444 cumulative IPC: 2.63026 (Simulation time: 0 hr 0 min 30 sec) 
Heartbeat CPU  3 instructions:    5000001 cycles:    1916629 heartbeat IPC: 1.75586 cumulative IPC: 2.60875 (Simulation time: 0 hr 0 min 31 sec) 
Heartbeat CPU  0 instructions:    5000000 cycles:    1942772 heartbeat IPC: 3.07373 cumulative IPC: 2.57364 (Simulation time: 0 hr 0 min 31 sec) 
Heartbeat CPU  2 instructions:    5000001 cycles:    1982863 heartbeat IPC: 3.05856 cumulative IPC: 2.52161 (Simulation time: 0 hr 0 min 32 sec) 
Heartbeat CPU  1 instructions:    6000000 cycles:    2228051 heartbeat IPC: 3.05718 cumulative IPC: 2.69294 (Simulation time: 0 hr 0 min 36 sec) 
Heartbeat CPU  3 instructions:    6000000 cycles:    2256386 heartbeat IPC: 2.94328 cumulative IPC: 2.65912 (Simulation time: 0 hr 0 min 37 sec) 
Heartbeat CPU  2 instructions:    6000003 cycles:    2306019 heartbeat IPC: 3.09449 cumulative IPC: 2.60189 (Simulation time: 0 hr 0 min 38 sec) 
Heartbeat CPU  0 instructions:    6000003 cycles:    2319688 heartbeat IPC: 2.65312 cumulative IPC: 2.58656 (Simulation time: 0 hr 0 min 38 sec) 
Heartbeat CPU  1 instructions:    7000001 cycles:    2582353 heartbeat IPC: 2.82245 cumulative IPC: 2.71071 (Simulation time: 0 hr 0 min 42 sec) 
Heartbeat CPU  3 instructions:    7000000 cycles:    2583221 heartbeat IPC: 3.05965 cumulative IPC: 2.70980 (Simulation time: 0 hr 0 min 42 sec) 
Heartbeat CPU  2 instructions:    7000001 cycles:    2630901 heartbeat IPC: 3.07803 cumulative IPC: 2.66069 (Simulation time: 0 hr 0 min 43 sec) 
Heartbeat CPU  0 instructions:    7000000 cycles:    2857793 heartbeat IPC: 1.85837 cumulative IPC: 2.44944 (Simulation time: 0 hr 0 min 46 sec) 
Heartbeat CPU  1 instructions:    8000000 cycles:    2944968 heartbeat IPC: 2.75774 cumulative IPC: 2.71650 (Simulation time: 0 hr 0 min 48 sec) 
Heartbeat CPU  2 instructions:    8000000 cycles:    2952983 heartbeat IPC: 3.10480 cumulative IPC: 2.70913 (Simulation time: 0 hr 0 min 48 sec) 
Heartbeat CPU  3 instructions:    8000000 cycles:    2965007 heartbeat IPC: 2.61927 cumulative IPC: 2.69814 (Simulation time: 0 hr 0 min 48 sec) 
Heartbeat CPU  0 instructions:    8000000 cycles:    3246526 heartbeat IPC: 2.57246 cumulative IPC: 2.46417 (Simulation time: 0 hr 0 min 53 sec) 
Heartbeat CPU  1 instructions:    9000002 cycles:    3284886 heartbeat IPC: 2.94189 cumulative IPC: 2.73982 (Simulation time: 0 hr 0 min 53 sec) 
Heartbeat CPU  3 instructions:    9000000 cycles:    3298133 heartbeat IPC: 3.00187 cumulative IPC: 2.72882 (Simulation time: 0 hr 0 min 54 sec) 
Heartbeat CPU  2 instructions:    9000002 cycles:    3325606 heartbeat IPC: 2.68368 cumulative IPC: 2.70627 (Simulation time: 0 hr 0 min 54 sec) 
Heartbeat CPU  1 instructions:   10000003 cycles:    3603064 heartbeat IPC: 3.14290 cumulative IPC: 2.77542 (Simulation time: 0 hr 0 min 59 sec) 
Heartbeat CPU  2 instructions:   10000000 cycles:    3648270 heartbeat IPC: 3.09919 cumulative IPC: 2.74103 (Simulation time: 0 hr 0 min 59 sec) 
Heartbeat CPU  0 instructions:    9000002 cycles:    3687684 heartbeat IPC: 2.26677 cumulative IPC: 2.44056 (Simulation time: 0 hr 1 min 0 sec) 
Heartbeat CPU  3 instructions:   10000001 cycles:    3693486 heartbeat IPC: 2.52939 cumulative IPC: 2.70747 (Simulation time: 0 hr 1 min 0 sec) 
Heartbeat CPU  1 instructions:   11000000 cycles:    3924261 heartbeat IPC: 3.11334 cumulative IPC: 2.80308 (Simulation time: 0 hr 1 min 4 sec) 
Heartbeat CPU  3 instructions:   11000002 cycles:    4018155 heartbeat IPC: 3.08006 cumulative IPC: 2.73758 (Simulation time: 0 hr 1 min 5 sec) 
Heartbeat CPU  2 instructions:   11000001 cycles:    4091654 heartbeat IPC: 2.25538 cumulative IPC: 2.68840 (Simulation time: 0 hr 1 min 7 sec) 
Heartbeat CPU  0 instructions:   10000000 cycles:    4098910 heartbeat IPC: 2.43175 cumulative IPC: 2.43967 (Simulation time: 0 hr 1 min 7 sec) 
Heartbeat CPU  1 instructions:   12000000 cycles:    4245200 heartbeat IPC: 3.11586 cumulative IPC: 2.82672 (Simulation time: 0 hr 1 min 9 sec) 
Heartbeat CPU  3 instructions:   12000000 cycles:    4343179 heartbeat IPC: 3.07669 cumulative IPC: 2.76295 (Simulation time: 0 hr 1 min 11 sec) 
Heartbeat CPU  2 instructions:   12000000 cycles:    4417489 heartbeat IPC: 3.06904 cumulative IPC: 2.71648 (Simulation time: 0 hr 1 min 13 sec) 
Heartbeat CPU  0 instructions:   11000001 cycles:    4440399 heartbeat IPC: 2.92835 cumulative IPC: 2.47726 (Simulation time: 0 hr 1 min 13 sec) 
Heartbeat CPU  1 instructions:   13000000 cycles:    4566638 heartbeat IPC: 3.11102 cumulative IPC: 2.84673 (Simulation time: 0 hr 1 min 15 sec) 
Heartbeat CPU  3 instructions:   13000002 cycles:    4667662 heartbeat IPC: 3.08183 cumulative IPC: 2.78512 (Simulation time: 0 hr 1 min 17 sec) 
Heartbeat CPU  0 instructions:   12000000 cycles:    4768193 heartbeat IPC: 3.05069 cumulative IPC: 2.51668 (Simulation time: 0 hr 1 min 19 sec) 
Heartbeat CPU  2 instructions:   13000001 cycles:    4790890 heartbeat IPC: 2.67809 cumulative IPC: 2.71348 (Simulation time: 0 hr 1 min 19 sec) 
Heartbeat CPU  1 instructions:   14000001 cycles:    4912714 heartbeat IPC: 2.88954 cumulative IPC: 2.84975 (Simulation time: 0 hr 1 min 21 sec) 
Heartbeat CPU  3 instructions:   14000000 cycles:    5020848 heartbeat IPC: 2.83136 cumulative IPC: 2.78837 (Simulation time: 0 hr 1 min 23 sec) 
Heartbeat CPU  0 instructions:   13000002 cycles:    5096438 heartbeat IPC: 3.04651 cumulative IPC: 2.55080 (Simulation time: 0 hr 1 min 24 sec) 
Heartbeat CPU  2 instructions:   14000001 cycles:    5140012 heartbeat IPC: 2.86433 cumulative IPC: 2.72373 (Simulation time: 0 hr 1 min 25 sec) 
Heartbeat CPU  1 instructions:   15000000 cycles:    5228770 heartbeat IPC: 3.16399 cumulative IPC: 2.86874 (Simulation time: 0 hr 1 min 27 sec) 
Heartbeat CPU  3 instructions:   15000003 cycles:    5491978 heartbeat IPC: 2.12256 cumulative IPC: 2.73126 (Simulation time: 0 hr 1 min 31 sec) 
Heartbeat CPU  2 instructions:   15000002 cycles:    5503542 heartbeat IPC: 2.75081 cumulative IPC: 2.72552 (Simulation time: 0 hr 1 min 31 sec) 
Heartbeat CPU  0 instructions:   14000001 cycles:    5562569 heartbeat IPC: 2.14532 cumulative IPC: 2.51682 (Simulation time: 0 hr 1 min 32 sec) 
Heartbeat CPU  1 instructions:   16000000 cycles:    5626621 heartbeat IPC: 2.51350 cumulative IPC: 2.84363 (Simulation time: 0 hr 1 min 33 sec) 
Heartbeat CPU  3 instructions:   16000000 cycles:    5818231 heartbeat IPC: 3.06510 cumulative IPC: 2.74998 (Simulation time: 0 hr 1 min 36 sec) 
Heartbeat CPU  0 instructions:   15000000 cycles:    5961079 heartbeat IPC: 2.50934 cumulative IPC: 2.51632 (Simulation time: 0 hr 1 min 38 sec) 
Heartbeat CPU  2 instructions:   16000000 cycles:    6001129 heartbeat IPC: 2.00969 cumulative IPC: 2.66616 (Simulation time: 0 hr 1 min 39 sec) 
Heartbeat CPU  3 instructions:   17000000 cycles:    6145503 heartbeat IPC: 3.05556 cumulative IPC: 2.76625 (Simulation time: 0 hr 1 min 41 sec) 
Heartbeat CPU  0 instructions:   16000000 cycles:    6288864 heartbeat IPC: 3.05078 cumulative IPC: 2.54418 (Simulation time: 0 hr 1 min 43 sec) 
Heartbeat CPU  2 instructions:   17000001 cycles:    6373632 heartbeat IPC: 2.68454 cumulative IPC: 2.66724 (Simulation time: 0 hr 1 min 44 sec) 
Heartbeat CPU  1 instructions:   17000001 cycles:    6412754 heartbeat IPC: 1.27205 cumulative IPC: 2.65097 (Simulation time: 0 hr 1 min 45 sec) 
Heartbeat CPU  3 instructions:   18000000 cycles:    6545221 heartbeat IPC: 2.50176 cumulative IPC: 2.75010 (Simulation time: 0 hr 1 min 47 sec) 
Heartbeat CPU  0 instructions:   17000003 cycles:    6614889 heartbeat IPC: 3.06726 cumulative IPC: 2.56996 (Simulation time: 0 hr 1 min 48 sec) 
Heartbeat CPU  2 instructions:   18000000 cycles:    6700486 heartbeat IPC: 3.05947 cumulative IPC: 2.68637 (Simulation time: 0 hr 1 min 49 sec) 
Heartbeat CPU  1 instructions:   18000003 cycles:    6769795 heartbeat IPC: 2.80080 cumulative IPC: 2.65887 (Simulation time: 0 hr 1 min 51 sec) 
Heartbeat CPU  3 instructions:   19000001 cycles:    6936528 heartbeat IPC: 2.55554 cumulative IPC: 2.73912 (Simulation time: 0 hr 1 min 53 sec) 
Heartbeat CPU  2 instructions:   19000000 cycles:    7024387 heartbeat IPC: 3.08736 cumulative IPC: 2.70486 (Simulation time: 0 hr 1 min 54 sec) 
Heartbeat CPU  0 instructions:   18000001 cycles:    7156029 heartbeat IPC: 1.84795 cumulative IPC: 2.51536 (Simulation time: 0 hr 1 min 56 sec) 
Heartbeat CPU  3 instructions:   20000000 cycles:    7319631 heartbeat IPC: 2.61026 cumulative IPC: 2.73238 (Simulation time: 0 hr 1 min 58 sec) 
Heartbeat CPU  2 instructions:   20000000 cycles:    7344715 heartbeat IPC: 3.12180 cumulative IPC: 2.72305 (Simulation time: 0 hr 1 min 58 sec) 
Heartbeat CPU  0 instructions:   19000000 cycles:    7611220 heartbeat IPC: 2.19688 cumulative IPC: 2.49631 (Simulation time: 0 hr 2 min 2 sec) 
Heartbeat CPU  2 instructions:   21000002 cycles:    7668176 heartbeat IPC: 3.09157 cumulative IPC: 2.73859 (Simulation time: 0 hr 2 min 3 sec) 
Heartbeat CPU  1 instructions:   19000000 cycles:    7683451 heartbeat IPC: 1.09450 cumulative IPC: 2.47285 (Simulation time: 0 hr 2 min 4 sec) 
Heartbeat CPU  3 instructions:   21000003 cycles:    7685526 heartbeat IPC: 2.73303 cumulative IPC: 2.73241 (Simulation time: 0 hr 2 min 4 sec) 
Heartbeat CPU  2 instructions:   22000001 cycles:    7987138 heartbeat IPC: 3.13517 cumulative IPC: 2.75443 (Simulation time: 0 hr 2 min 8 sec) 
Heartbeat CPU  0 instructions:   20000000 cycles:    8012295 heartbeat IPC: 2.49330 cumulative IPC: 2.49616 (Simulation time: 0 hr 2 min 8 sec) 
Heartbeat CPU  3 instructions:   22000003 cycles:    8026177 heartbeat IPC: 2.93556 cumulative IPC: 2.74103 (Simulation time: 0 hr 2 min 9 sec) 
Heartbeat CPU  2 instructions:   23000001 cycles:    8311902 heartbeat IPC: 3.07916 cumulative IPC: 2.76712 (Simulation time: 0 hr 2 min 13 sec) 
Heartbeat CPU  3 instructions:   23000000 cycles:    8355847 heartbeat IPC: 3.03333 cumulative IPC: 2.75256 (Simulation time: 0 hr 2 min 13 sec) 
Heartbeat CPU  0 instructions:   21000000 cycles:    8493284 heartbeat IPC: 2.07905 cumulative IPC: 2.47254 (Simulation time: 0 hr 2 min 15 sec) 
Heartbeat CPU  1 instructions:   20000000 cycles:    8597316 heartbeat IPC: 1.09425 cumulative IPC: 2.32631 (Simulation time: 0 hr 2 min 17 sec) 
Heartbeat CPU  3 instructions:   24000000 cycles:    8728336 heartbeat IPC: 2.68464 cumulative IPC: 2.74967 (Simulation time: 0 hr 2 min 18 sec) 
Heartbeat CPU  2 instructions:   24000000 cycles:    8809261 heartbeat IPC: 2.01062 cumulative IPC: 2.72441 (Simulation time: 0 hr 2 min 20 sec) 
Heartbeat CPU  0 instructions:   22000000 cycles:    9036128 heartbeat IPC: 1.84215 cumulative IPC: 2.43467 (Simulation time: 0 hr 2 min 23 sec) 
Heartbeat CPU  1 instructions:   21000001 cycles:    9091078 heartbeat IPC: 2.02527 cumulative IPC: 2.30996 (Simulation time: 0 hr 2 min 24 sec) 
Heartbeat CPU  2 instructions:   25000003 cycles:    9145167 heartbeat IPC: 2.97703 cumulative IPC: 2.73368 (Simulation time: 0 hr 2 min 25 sec) 
Heartbeat CPU  3 instructions:   25000003 cycles:    9174401 heartbeat IPC: 2.24183 cumulative IPC: 2.72497 (Simulation time: 0 hr 2 min 25 sec) 
Heartbeat CPU  0 instructions:   23000003 cycles:    9373639 heartbeat IPC: 2.96288 cumulative IPC: 2.45369 (Simulation time: 0 hr 2 min 29 sec) 
Heartbeat CPU  1 instructions:   22000002 cycles:    9423128 heartbeat IPC: 3.01160 cumulative IPC: 2.33468 (Simulation time: 0 hr 2 min 30 sec) 
Heartbeat CPU  3 instructions:   26000002 cycles:    9510826 heartbeat IPC: 2.97243 cumulative IPC: 2.73373 (Simulation time: 0 hr 2 min 31 sec) 
Heartbeat CPU  2 instructions:   26000000 cycles:    9519789 heartbeat IPC: 2.66935 cumulative IPC: 2.73115 (Simulation time: 0 hr 2 min 31 sec) 
Heartbeat CPU  0 instructions:   24000000 cycles:    9698921 heartbeat IPC: 3.07425 cumulative IPC: 2.47450 (Simulation time: 0 hr 2 min 35 sec) 
Heartbeat CPU  1 instructions:   23000002 cycles:    9739789 heartbeat IPC: 3.15795 cumulative IPC: 2.36145 (Simulation time: 0 hr 2 min 35 sec) 
Heartbeat CPU  3 instructions:   27000000 cycles:    9839915 heartbeat IPC: 3.03869 cumulative IPC: 2.74393 (Simulation time: 0 hr 2 min 37 sec) 
Heartbeat CPU  2 instructions:   27000000 cycles:    9890649 heartbeat IPC: 2.69644 cumulative IPC: 2.72985 (Simulation time: 0 hr 2 min 38 sec) 
Heartbeat CPU  0 instructions:   25000000 cycles:   10023288 heartbeat IPC: 3.08293 cumulative IPC: 2.49419 (Simulation time: 0 hr 2 min 40 sec) 
Heartbeat CPU  1 instructions:   24000000 cycles:   10059241 heartbeat IPC: 3.13035 cumulative IPC: 2.38587 (Simulation time: 0 hr 2 min 41 sec) 
Heartbeat CPU  3 instructions:   28000000 cycles:   10165446 heartbeat IPC: 3.07190 cumulative IPC: 2.75443 (Simulation time: 0 hr 2 min 43 sec) 
Heartbeat CPU  2 instructions:   28000000 cycles:   10274086 heartbeat IPC: 2.60799 cumulative IPC: 2.72530 (Simulation time: 0 hr 2 min 45 sec) 
Heartbeat CPU  1 instructions:   25000003 cycles:   10368935 heartbeat IPC: 3.22900 cumulative IPC: 2.41105 (Simulation time: 0 hr 2 min 47 sec) 
Heartbeat CPU  0 instructions:   26000000 cycles:   10498100 heartbeat IPC: 2.10610 cumulative IPC: 2.47664 (Simulation time: 0 hr 2 min 48 sec) 
Heartbeat CPU  3 instructions:   29000003 cycles:   10544932 heartbeat IPC: 2.63515 cumulative IPC: 2.75014 (Simulation time: 0 hr 2 min 49 sec) 
Heartbeat CPU  2 instructions:   29000003 cycles:   10606901 heartbeat IPC: 3.00468 cumulative IPC: 2.73407 (Simulation time: 0 hr 2 min 50 sec) 
Heartbeat CPU  0 instructions:   27000001 cycles:   10829800 heartbeat IPC: 3.01478 cumulative IPC: 2.49312 (Simulation time: 0 hr 2 min 54 sec) 
Heartbeat CPU  1 instructions:   26000002 cycles:   10840220 heartbeat IPC: 2.12186 cumulative IPC: 2.39848 (Simulation time: 0 hr 2 min 54 sec) 
Heartbeat CPU  2 instructions:   30000000 cycles:   10933632 heartbeat IPC: 3.06061 cumulative IPC: 2.74383 (Simulation time: 0 hr 2 min 56 sec) 
Heartbeat CPU  3 instructions:   30000000 cycles:   10954528 heartbeat IPC: 2.44142 cumulative IPC: 2.73859 (Simulation time: 0 hr 2 min 56 sec) 
Heartbeat CPU  0 instructions:   28000000 cycles:   11159016 heartbeat IPC: 3.03752 cumulative IPC: 2.50918 (Simulation time: 0 hr 3 min 0 sec) 
Heartbeat CPU  1 instructions:   27000001 cycles:   11161726 heartbeat IPC: 3.11036 cumulative IPC: 2.41898 (Simulation time: 0 hr 3 min 0 sec) 
Heartbeat CPU  2 instructions:   31000001 cycles:   11258370 heartbeat IPC: 3.07941 cumulative IPC: 2.75351 (Simulation time: 0 hr 3 min 1 sec) 
Heartbeat CPU  3 instructions:   31000002 cycles:   11280629 heartbeat IPC: 3.06654 cumulative IPC: 2.74807 (Simulation time: 0 hr 3 min 2 sec) 
Heartbeat CPU  0 instructions:   29000003 cycles:   11487647 heartbeat IPC: 3.04294 cumulative IPC: 2.52445 (Simulation time: 0 hr 3 min 5 sec) 
Heartbeat CPU  3 instructions:   32000000 cycles:   11607202 heartbeat IPC: 3.06210 cumulative IPC: 2.75691 (Simulation time: 0 hr 3 min 7 sec) 
Heartbeat CPU  2 instructions:   32000000 cycles:   11617693 heartbeat IPC: 2.78301 cumulative IPC: 2.75442 (Simulation time: 0 hr 3 min 8 sec) 
Heartbeat CPU  1 instructions:   28000000 cycles:   11731693 heartbeat IPC: 1.75449 cumulative IPC: 2.38670 (Simulation time: 0 hr 3 min 10 sec) 
Heartbeat CPU  0 instructions:   30000000 cycles:   11822872 heartbeat IPC: 2.98306 cumulative IPC: 2.53745 (Simulation time: 0 hr 3 min 11 sec) 
Heartbeat CPU  2 instructions:   33000001 cycles:   11942704 heartbeat IPC: 3.07682 cumulative IPC: 2.76319 (Simulation time: 0 hr 3 min 13 sec) 
Heartbeat CPU  3 instructions:   33000000 cycles:   11994984 heartbeat IPC: 2.57877 cumulative IPC: 2.75115 (Simulation time: 0 hr 3 min 14 sec) 
Heartbeat CPU  1 instructions:   29000002 cycles:   12169629 heartbeat IPC: 2.28344 cumulative IPC: 2.38298 (Simulation time: 0 hr 3 min 17 sec) 
Heartbeat CPU  0 instructions:   31000003 cycles:   12217237 heartbeat IPC: 2.53573 cumulative IPC: 2.53740 (Simulation time: 0 hr 3 min 18 sec) 
Heartbeat CPU  2 instructions:   34000000 cycles:   12290692 heartbeat IPC: 2.87366 cumulative IPC: 2.76632 (Simulation time: 0 hr 3 min 19 sec) 
Heartbeat CPU  3 instructions:   34000000 cycles:   12470906 heartbeat IPC: 2.10118 cumulative IPC: 2.72635 (Simulation time: 0 hr 3 min 22 sec) 
Heartbeat CPU  0 instructions:   32000000 cycles:   12544907 heartbeat IPC: 3.05184 cumulative IPC: 2.55084 (Simulation time: 0 hr 3 min 24 sec) 
Heartbeat CPU  1 instructions:   30000002 cycles:   12570248 heartbeat IPC: 2.49614 cumulative IPC: 2.38659 (Simulation time: 0 hr 3 min 24 sec) 
Heartbeat CPU  2 instructions:   35000000 cycles:   12613529 heartbeat IPC: 3.09754 cumulative IPC: 2.77480 (Simulation time: 0 hr 3 min 25 sec) 
Heartbeat CPU  3 instructions:   35000003 cycles:   12861072 heartbeat IPC: 2.56302 cumulative IPC: 2.72139 (Simulation time: 0 hr 3 min 29 sec) 
Heartbeat CPU  0 instructions:   33000003 cycles:   12868189 heartbeat IPC: 3.09328 cumulative IPC: 2.56446 (Simulation time: 0 hr 3 min 29 sec) 
Heartbeat CPU  2 instructions:   36000000 cycles:   12977118 heartbeat IPC: 2.75036 cumulative IPC: 2.77411 (Simulation time: 0 hr 3 min 31 sec) 
Heartbeat CPU  1 instructions:   31000000 cycles:   13044647 heartbeat IPC: 2.10793 cumulative IPC: 2.37645 (Simulation time: 0 hr 3 min 32 sec) 
Heartbeat CPU  3 instructions:   36000000 cycles:   13185946 heartbeat IPC: 3.07811 cumulative IPC: 2.73018 (Simulation time: 0 hr 3 min 33 sec) 
Heartbeat CPU  0 instructions:   34000000 cycles:   13463222 heartbeat IPC: 1.68057 cumulative IPC: 2.52540 (Simulation time: 0 hr 3 min 36 sec) 
Heartbeat CPU  3 instructions:   37000000 cycles:   13517614 heartbeat IPC: 3.01506 cumulative IPC: 2.73717 (Simulation time: 0 hr 3 min 37 sec) 
Heartbeat CPU  2 instructions:   37000002 cycles:   13667237 heartbeat IPC: 1.44903 cumulative IPC: 2.70720 (Simulation time: 0 hr 3 min 40 sec) 
Heartbeat CPU  1 instructions:   32000000 cycles:   13705786 heartbeat IPC: 1.51254 cumulative IPC: 2.33478 (Simulation time: 0 hr 3 min 40 sec) 
Heartbeat CPU  3 instructions:   38000002 cycles:   13842100 heartbeat IPC: 3.08180 cumulative IPC: 2.74525 (Simulation time: 0 hr 3 min 43 sec) 
Heartbeat CPU  2 instructions:   38000002 cycles:   14022947 heartbeat IPC: 2.81128 cumulative IPC: 2.70984 (Simulation time: 0 hr 3 min 45 sec) 
Heartbeat CPU  0 instructions:   35000001 cycles:   14075837 heartbeat IPC: 1.63235 cumulative IPC: 2.48653 (Simulation time: 0 hr 3 min 46 sec) 
Heartbeat CPU  1 instructions:   33000001 cycles:   14091211 heartbeat IPC: 2.59454 cumulative IPC: 2.34189 (Simulation time: 0 hr 3 min 46 sec) 
Heartbeat CPU  3 instructions:   39000001 cycles:   14166319 heartbeat IPC: 3.08433 cumulative IPC: 2.75301 (Simulation time: 0 hr 3 min 47 sec) 
Heartbeat CPU  2 instructions:   39000002 cycles:   14350088 heartbeat IPC: 3.05679 cumulative IPC: 2.71775 (Simulation time: 0 hr 3 min 50 sec) 
Heartbeat CPU  3 instructions:   40000000 cycles:   14485474 heartbeat IPC: 3.13327 cumulative IPC: 2.76139 (Simulation time: 0 hr 3 min 52 sec) 
Heartbeat CPU  2 instructions:   40000000 cycles:   14677781 heartbeat IPC: 3.05163 cumulative IPC: 2.72521 (Simulation time: 0 hr 3 min 55 sec) 
Heartbeat CPU  1 instructions:   34000000 cycles:   14721394 heartbeat IPC: 1.58684 cumulative IPC: 2.30956 (Simulation time: 0 hr 3 min 55 sec) 
Heartbeat CPU  3 instructions:   41000001 cycles:   14817433 heartbeat IPC: 3.01242 cumulative IPC: 2.76701 (Simulation time: 0 hr 3 min 57 sec) 
Heartbeat CPU  0 instructions:   36000000 cycles:   14959300 heartbeat IPC: 1.13191 cumulative IPC: 2.40653 (Simulation time: 0 hr 3 min 59 sec) 
Heartbeat CPU  2 instructions:   41000000 cycles:   15005820 heartbeat IPC: 3.04842 cumulative IPC: 2.73227 (Simulation time: 0 hr 3 min 59 sec) 
Heartbeat CPU  3 instructions:   42000000 cycles:   15339363 heartbeat IPC: 1.91596 cumulative IPC: 2.73805 (Simulation time: 0 hr 4 min 3 sec) 
Heartbeat CPU  1 instructions:   35000000 cycles:   15369464 heartbeat IPC: 1.54304 cumulative IPC: 2.27724 (Simulation time: 0 hr 4 min 4 sec) 
Heartbeat CPU  2 instructions:   42000000 cycles:   15458740 heartbeat IPC: 2.20790 cumulative IPC: 2.71691 (Simulation time: 0 hr 4 min 5 sec) 
Heartbeat CPU  0 instructions:   37000001 cycles:   15695318 heartbeat IPC: 1.35866 cumulative IPC: 2.35739 (Simulation time: 0 hr 4 min 7 sec) 
Heartbeat CPU  3 instructions:   43000000 cycles:   15816621 heartbeat IPC: 2.09530 cumulative IPC: 2.71866 (Simulation time: 0 hr 4 min 9 sec) 
Heartbeat CPU  2 instructions:   43000001 cycles:   16017150 heartbeat IPC: 1.79080 cumulative IPC: 2.68462 (Simulation time: 0 hr 4 min 12 sec) 
Heartbeat CPU  0 instructions:   38000002 cycles:   16106113 heartbeat IPC: 2.43431 cumulative IPC: 2.35935 (Simulation time: 0 hr 4 min 13 sec) 
Heartbeat CPU  3 instructions:   44000000 cycles:   16278724 heartbeat IPC: 2.16402 cumulative IPC: 2.70291 (Simulation time: 0 hr 4 min 15 sec) 
Heartbeat CPU  1 instructions:   36000000 cycles:   16364816 heartbeat IPC: 1.00467 cumulative IPC: 2.19984 (Simulation time: 0 hr 4 min 16 sec) 
Heartbeat CPU  0 instructions:   39000000 cycles:   16520706 heartbeat IPC: 2.41200 cumulative IPC: 2.36067 (Simulation time: 0 hr 4 min 18 sec) 
Heartbeat CPU  2 instructions:   44000000 cycles:   16767706 heartbeat IPC: 1.33234 cumulative IPC: 2.62409 (Simulation time: 0 hr 4 min 21 sec) 
Heartbeat CPU  3 instructions:   45000001 cycles:   16862773 heartbeat IPC: 1.71219 cumulative IPC: 2.66860 (Simulation time: 0 hr 4 min 22 sec) 
Heartbeat CPU  1 instructions:   37000001 cycles:   16922050 heartbeat IPC: 1.79458 cumulative IPC: 2.18650 (Simulation time: 0 hr 4 min 23 sec) 
Heartbeat CPU  0 instructions:   40000000 cycles:   17049312 heartbeat IPC: 1.89177 cumulative IPC: 2.34614 (Simulation time: 0 hr 4 min 25 sec) 
Heartbeat CPU  2 instructions:   45000001 cycles:   17096593 heartbeat IPC: 3.04056 cumulative IPC: 2.63210 (Simulation time: 0 hr 4 min 26 sec) 
Heartbeat CPU  3 instructions:   46000001 cycles:   17186921 heartbeat IPC: 3.08501 cumulative IPC: 2.67645 (Simulation time: 0 hr 4 min 27 sec) 
Heartbeat CPU  0 instructions:   41000000 cycles:   17372798 heartbeat IPC: 3.09132 cumulative IPC: 2.36001 (Simulation time: 0 hr 4 min 30 sec) 
Heartbeat CPU  2 instructions:   46000002 cycles:   17496446 heartbeat IPC: 2.50092 cumulative IPC: 2.62911 (Simulation time: 0 hr 4 min 32 sec) 
Heartbeat CPU  3 instructions:   47000003 cycles:   17523141 heartbeat IPC: 2.97425 cumulative IPC: 2.68217 (Simulation time: 0 hr 4 min 33 sec) 
Heartbeat CPU  0 instructions:   42000000 cycles:   17735290 heartbeat IPC: 2.75868 cumulative IPC: 2.36816 (Simulation time: 0 hr 4 min 36 sec) 
Heartbeat CPU  1 instructions:   38000002 cycles:   17850832 heartbeat IPC: 1.07668 cumulative IPC: 2.12875 (Simulation time: 0 hr 4 min 37 sec) 
Heartbeat CPU  2 instructions:   47000000 cycles:   17895067 heartbeat IPC: 2.50864 cumulative IPC: 2.62642 (Simulation time: 0 hr 4 min 38 sec) 
Heartbeat CPU  3 instructions:   48000000 cycles:   17903962 heartbeat IPC: 2.62590 cumulative IPC: 2.68097 (Simulation time: 0 hr 4 min 38 sec) 
Heartbeat CPU  3 instructions:   49000003 cycles:   18230753 heartbeat IPC: 3.06007 cumulative IPC: 2.68777 (Simulation time: 0 hr 4 min 42 sec) 
Heartbeat CPU  2 instructions:   48000000 cycles:   18248280 heartbeat IPC: 2.83115 cumulative IPC: 2.63038 (Simulation time: 0 hr 4 min 43 sec) 
Heartbeat CPU  3 instructions:   50000002 cycles:   18553467 heartbeat IPC: 3.09872 cumulative IPC: 2.69491 (Simulation time: 0 hr 4 min 47 sec) 
Heartbeat CPU  0 instructions:   43000001 cycles:   18562041 heartbeat IPC: 1.20956 cumulative IPC: 2.31656 (Simulation time: 0 hr 4 min 47 sec) 
Heartbeat CPU  2 instructions:   49000003 cycles:   18574356 heartbeat IPC: 3.06678 cumulative IPC: 2.63805 (Simulation time: 0 hr 4 min 48 sec) 
Heartbeat CPU  1 instructions:   39000000 cycles:   18645455 heartbeat IPC: 1.25846 cumulative IPC: 2.09166 (Simulation time: 0 hr 4 min 49 sec) 
Heartbeat CPU  3 instructions:   51000001 cycles:   18871372 heartbeat IPC: 3.14559 cumulative IPC: 0.05299 (Simulation time: 0 hr 4 min 52 sec) 
Heartbeat CPU  2 instructions:   50000001 cycles:   18908675 heartbeat IPC: 2.99115 cumulative IPC: 2.64429 (Simulation time: 0 hr 4 min 53 sec) 
Heartbeat CPU  1 instructions:   40000000 cycles:   19191210 heartbeat IPC: 1.83232 cumulative IPC: 2.08429 (Simulation time: 0 hr 4 min 57 sec) 
Heartbeat CPU  3 instructions:   52000000 cycles:   19196542 heartbeat IPC: 3.07531 cumulative IPC: 0.10419 (Simulation time: 0 hr 4 min 57 sec) 
Heartbeat CPU  0 instructions:   44000000 cycles:   19258489 heartbeat IPC: 1.43586 cumulative IPC: 2.28471 (Simulation time: 0 hr 4 min 58 sec) 
Heartbeat CPU  2 instructions:   51000000 cycles:   19280618 heartbeat IPC: 2.68858 cumulative IPC: 0.05187 (Simulation time: 0 hr 4 min 59 sec) 
Heartbeat CPU  3 instructions:   53000000 cycles:   19522147 heartbeat IPC: 3.07121 cumulative IPC: 0.15367 (Simulation time: 0 hr 5 min 3 sec) 
Heartbeat CPU  1 instructions:   41000000 cycles:   19523914 heartbeat IPC: 3.00567 cumulative IPC: 2.09999 (Simulation time: 0 hr 5 min 3 sec) 
Heartbeat CPU  2 instructions:   52000000 cycles:   19606248 heartbeat IPC: 3.07097 cumulative IPC: 0.10201 (Simulation time: 0 hr 5 min 4 sec) 
Heartbeat CPU  1 instructions:   42000001 cycles:   19883078 heartbeat IPC: 2.78425 cumulative IPC: 2.11235 (Simulation time: 0 hr 5 min 9 sec) 
Heartbeat CPU  3 instructions:   54000001 cycles:   19885368 heartbeat IPC: 2.75315 cumulative IPC: 0.20115 (Simulation time: 0 hr 5 min 9 sec) 
Heartbeat CPU  2 instructions:   53000002 cycles:   19931296 heartbeat IPC: 3.07647 cumulative IPC: 0.15052 (Simulation time: 0 hr 5 min 9 sec) 
Heartbeat CPU  0 instructions:   45000003 cycles:   19940615 heartbeat IPC: 1.46601 cumulative IPC: 2.25670 (Simulation time: 0 hr 5 min 10 sec) 
Heartbeat CPU  3 instructions:   55000000 cycles:   20312029 heartbeat IPC: 2.34378 cumulative IPC: 0.24616 (Simulation time: 0 hr 5 min 15 sec) 
Heartbeat CPU  2 instructions:   54000000 cycles:   20346387 heartbeat IPC: 2.40911 cumulative IPC: 0.19660 (Simulation time: 0 hr 5 min 15 sec) 
Heartbeat CPU  0 instructions:   46000001 cycles:   20442702 heartbeat IPC: 1.99168 cumulative IPC: 2.25019 (Simulation time: 0 hr 5 min 17 sec) 
Heartbeat CPU  0 instructions:   47000001 cycles:   20823470 heartbeat IPC: 2.62627 cumulative IPC: 2.25707 (Simulation time: 0 hr 5 min 21 sec) 
Heartbeat CPU  1 instructions:   43000000 cycles:   20828747 heartbeat IPC: 1.05745 cumulative IPC: 2.06445 (Simulation time: 0 hr 5 min 21 sec) 
Heartbeat CPU  2 instructions:   55000003 cycles:   20927736 heartbeat IPC: 1.72014 cumulative IPC: 0.23892 (Simulation time: 0 hr 5 min 22 sec) 
Heartbeat CPU  3 instructions:   56000000 cycles:   21000752 heartbeat IPC: 1.45196 cumulative IPC: 0.28570 (Simulation time: 0 hr 5 min 23 sec) 
Heartbeat CPU  0 instructions:   48000000 cycles:   21236419 heartbeat IPC: 2.42160 cumulative IPC: 2.26027 (Simulation time: 0 hr 5 min 27 sec) 
Heartbeat CPU  3 instructions:   57000000 cycles:   21410614 heartbeat IPC: 2.43985 cumulative IPC: 0.32694 (Simulation time: 0 hr 5 min 29 sec) 
Heartbeat CPU  1 instructions:   44000000 cycles:   21470412 heartbeat IPC: 1.55845 cumulative IPC: 2.04933 (Simulation time: 0 hr 5 min 30 sec) 
Heartbeat CPU  2 instructions:   56000000 cycles:   21471234 heartbeat IPC: 1.83993 cumulative IPC: 0.27944 (Simulation time: 0 hr 5 min 30 sec) 
Heartbeat CPU  0 instructions:   49000003 cycles:   21562563 heartbeat IPC: 3.06614 cumulative IPC: 2.27246 (Simulation time: 0 hr 5 min 32 sec) 
Heartbeat CPU  2 instructions:   57000001 cycles:   21849824 heartbeat IPC: 2.64138 cumulative IPC: 0.32037 (Simulation time: 0 hr 5 min 36 sec) 
Heartbeat CPU  3 instructions:   58000000 cycles:   21962991 heartbeat IPC: 1.81036 cumulative IPC: 0.36425 (Simulation time: 0 hr 5 min 37 sec) 
Heartbeat CPU  0 instructions:   50000000 cycles:   22032879 heartbeat IPC: 2.12622 cumulative IPC: 2.26934 (Simulation time: 0 hr 5 min 38 sec) 
Heartbeat CPU  1 instructions:   45000003 cycles:   22268095 heartbeat IPC: 1.25363 cumulative IPC: 2.02083 (Simulation time: 0 hr 5 min 41 sec) 
Heartbeat CPU  2 instructions:   58000001 cycles:   22420885 heartbeat IPC: 1.75113 cumulative IPC: 0.35681 (Simulation time: 0 hr 5 min 43 sec) 
Heartbeat CPU  0 instructions:   51000000 cycles:   22459840 heartbeat IPC: 2.34213 cumulative IPC: 0.04452 (Simulation time: 0 hr 5 min 43 sec) 
Heartbeat CPU  3 instructions:   59000000 cycles:   22592720 heartbeat IPC: 1.58798 cumulative IPC: 0.39836 (Simulation time: 0 hr 5 min 45 sec) 
Heartbeat CPU  0 instructions:   52000000 cycles:   22783620 heartbeat IPC: 3.08852 cumulative IPC: 0.08778 (Simulation time: 0 hr 5 min 47 sec) 
Heartbeat CPU  1 instructions:   46000001 cycles:   22922420 heartbeat IPC: 1.52829 cumulative IPC: 2.00677 (Simulation time: 0 hr 5 min 49 sec) 
Heartbeat CPU  2 instructions:   59000002 cycles:   23049361 heartbeat IPC: 1.59115 cumulative IPC: 0.39047 (Simulation time: 0 hr 5 min 51 sec) 
Heartbeat CPU  3 instructions:   60000000 cycles:   23099940 heartbeat IPC: 1.97153 cumulative IPC: 0.43290 (Simulation time: 0 hr 5 min 52 sec) 
Heartbeat CPU  0 instructions:   53000002 cycles:   23106861 heartbeat IPC: 3.09367 cumulative IPC: 0.12983 (Simulation time: 0 hr 5 min 52 sec) 
Heartbeat CPU  1 instructions:   47000003 cycles:   23250886 heartbeat IPC: 3.04446 cumulative IPC: 2.02143 (Simulation time: 0 hr 5 min 54 sec) 
Heartbeat CPU  0 instructions:   54000000 cycles:   23527755 heartbeat IPC: 2.37589 cumulative IPC: 0.17001 (Simulation time: 0 hr 5 min 58 sec) 
Heartbeat CPU  2 instructions:   60000000 cycles:   23569075 heartbeat IPC: 1.92413 cumulative IPC: 0.42428 (Simulation time: 0 hr 5 min 59 sec) 
Heartbeat CPU  1 instructions:   48000000 cycles:   23580018 heartbeat IPC: 3.03829 cumulative IPC: 2.03562 (Simulation time: 0 hr 5 min 59 sec) 
Heartbeat CPU  3 instructions:   61000002 cycles:   23627215 heartbeat IPC: 1.89655 cumulative IPC: 0.46556 (Simulation time: 0 hr 6 min 0 sec) 
Heartbeat CPU  0 instructions:   55000001 cycles:   23887264 heartbeat IPC: 2.78157 cumulative IPC: 0.20932 (Simulation time: 0 hr 6 min 4 sec) 
Heartbeat CPU  1 instructions:   49000000 cycles:   23904105 heartbeat IPC: 3.08559 cumulative IPC: 2.04986 (Simulation time: 0 hr 6 min 4 sec) 
Heartbeat CPU  2 instructions:   61000002 cycles:   24112285 heartbeat IPC: 1.84091 cumulative IPC: 0.45620 (Simulation time: 0 hr 6 min 6 sec) 
Heartbeat CPU  1 instructions:   50000002 cycles:   24227657 heartbeat IPC: 3.09070 cumulative IPC: 2.06376 (Simulation time: 0 hr 6 min 8 sec) 

Warmup complete CPU  0 instructions:   55772538 cycles:   24227656 (Simulation time: 0 hr 6 min 8 sec) 
Warmup complete CPU  1 instructions:   50000002 cycles:   24227657 (Simulation time: 0 hr 6 min 8 sec) 
Warmup complete CPU  2 instructions:   61230197 cycles:   24227656 (Simulation time: 0 hr 6 min 8 sec) 
Warmup complete CPU  3 instructions:   61880100 cycles:   24227656 (Simulation time: 0 hr 6 min 8 sec) 

Heartbeat CPU  3 instructions:   62000000 cycles:   24440999 heartbeat IPC: 1.22882 cumulative IPC: 0.56201 (Simulation time: 0 hr 6 min 9 sec) 
Heartbeat CPU  0 instructions:   56000000 cycles:   24888906 heartbeat IPC: 0.99836 cumulative IPC: 0.34399 (Simulation time: 0 hr 6 min 10 sec) 
Heartbeat CPU  2 instructions:   62000002 cycles:   26414252 heartbeat IPC: 0.43441 cumulative IPC: 0.35206 (Simulation time: 0 hr 6 min 14 sec) 
Heartbeat CPU  0 instructions:   57000000 cycles:   27554599 heartbeat IPC: 0.37514 cumulative IPC: 0.36895 (Simulation time: 0 hr 6 min 17 sec) 
Heartbeat CPU  1 instructions:   51000003 cycles:   27919743 heartbeat IPC: 0.27085 cumulative IPC: 0.27085 (Simulation time: 0 hr 6 min 18 sec) 
Heartbeat CPU  3 instructions:   63000000 cycles:   28205243 heartbeat IPC: 0.26566 cumulative IPC: 0.28155 (Simulation time: 0 hr 6 min 19 sec) 
Heartbeat CPU  1 instructions:   52000000 cycles:   29558118 heartbeat IPC: 0.61036 cumulative IPC: 0.37520 (Simulation time: 0 hr 6 min 22 sec) 
Heartbeat CPU  0 instructions:   58000002 cycles:   30300485 heartbeat IPC: 0.36418 cumulative IPC: 0.36679 (Simulation time: 0 hr 6 min 24 sec) 
Heartbeat CPU  2 instructions:   63000000 cycles:   30395025 heartbeat IPC: 0.25121 cumulative IPC: 0.28696 (Simulation time: 0 hr 6 min 24 sec) 
Heartbeat CPU  1 instructions:   53000003 cycles:   32041088 heartbeat IPC: 0.40274 cumulative IPC: 0.38395 (Simulation time: 0 hr 6 min 29 sec) 
Heartbeat CPU  0 instructions:   59000002 cycles:   32359368 heartbeat IPC: 0.48570 cumulative IPC: 0.39690 (Simulation time: 0 hr 6 min 29 sec) 
Heartbeat CPU  2 instructions:   64000000 cycles:   35297548 heartbeat IPC: 0.20398 cumulative IPC: 0.25021 (Simulation time: 0 hr 6 min 35 sec) 
Heartbeat CPU  1 instructions:   54000003 cycles:   35357669 heartbeat IPC: 0.30152 cumulative IPC: 0.35939 (Simulation time: 0 hr 6 min 35 sec) 
Heartbeat CPU  3 instructions:   64000000 cycles:   35606167 heartbeat IPC: 0.13512 cumulative IPC: 0.18631 (Simulation time: 0 hr 6 min 36 sec) 
Heartbeat CPU  0 instructions:   60000000 cycles:   37414926 heartbeat IPC: 0.19780 cumulative IPC: 0.32057 (Simulation time: 0 hr 6 min 39 sec) 
Heartbeat CPU  1 instructions:   55000001 cycles:   38131650 heartbeat IPC: 0.36049 cumulative IPC: 0.35961 (Simulation time: 0 hr 6 min 41 sec) 
Heartbeat CPU  3 instructions:   65000000 cycles:   40608441 heartbeat IPC: 0.19991 cumulative IPC: 0.19046 (Simulation time: 0 hr 6 min 46 sec) 
Heartbeat CPU  2 instructions:   65000002 cycles:   41004036 heartbeat IPC: 0.17524 cumulative IPC: 0.22471 (Simulation time: 0 hr 6 min 47 sec) 
Heartbeat CPU  0 instructions:   61000003 cycles:   42067745 heartbeat IPC: 0.21492 cumulative IPC: 0.29302 (Simulation time: 0 hr 6 min 49 sec) 
Heartbeat CPU  1 instructions:   56000000 cycles:   42114965 heartbeat IPC: 0.25105 cumulative IPC: 0.33543 (Simulation time: 0 hr 6 min 49 sec) 
Heartbeat CPU  1 instructions:   57000001 cycles:   44581436 heartbeat IPC: 0.40544 cumulative IPC: 0.34392 (Simulation time: 0 hr 6 min 55 sec) 
Heartbeat CPU  3 instructions:   66000000 cycles:   45508696 heartbeat IPC: 0.20407 cumulative IPC: 0.19359 (Simulation time: 0 hr 6 min 57 sec) 
Heartbeat CPU  0 instructions:   62000002 cycles:   45787594 heartbeat IPC: 0.26883 cumulative IPC: 0.28884 (Simulation time: 0 hr 6 min 58 sec) 
Heartbeat CPU  2 instructions:   66000000 cycles:   46472661 heartbeat IPC: 0.18286 cumulative IPC: 0.21442 (Simulation time: 0 hr 7 min 0 sec) 
Heartbeat CPU  1 instructions:   58000002 cycles:   47661777 heartbeat IPC: 0.32464 cumulative IPC: 0.34138 (Simulation time: 0 hr 7 min 4 sec) 
Heartbeat CPU  0 instructions:   63000000 cycles:   48897096 heartbeat IPC: 0.32159 cumulative IPC: 0.29297 (Simulation time: 0 hr 7 min 8 sec) 
Heartbeat CPU  3 instructions:   67000000 cycles:   50947208 heartbeat IPC: 0.18387 cumulative IPC: 0.19162 (Simulation time: 0 hr 7 min 12 sec) 
Heartbeat CPU  1 instructions:   59000001 cycles:   51689330 heartbeat IPC: 0.24829 cumulative IPC: 0.32773 (Simulation time: 0 hr 7 min 13 sec) 
Heartbeat CPU  2 instructions:   67000002 cycles:   52438221 heartbeat IPC: 0.16763 cumulative IPC: 0.20453 (Simulation time: 0 hr 7 min 15 sec) 
Heartbeat CPU  0 instructions:   64000000 cycles:   52557666 heartbeat IPC: 0.27318 cumulative IPC: 0.29042 (Simulation time: 0 hr 7 min 15 sec) 
Heartbeat CPU  1 instructions:   60000000 cycles:   56829729 heartbeat IPC: 0.19454 cumulative IPC: 0.30673 (Simulation time: 0 hr 7 min 22 sec) 
Heartbeat CPU  2 instructions:   68000000 cycles:   57679223 heartbeat IPC: 0.19080 cumulative IPC: 0.20238 (Simulation time: 0 hr 7 min 24 sec) 
Heartbeat CPU  3 instructions:   68000000 cycles:   57727475 heartbeat IPC: 0.14749 cumulative IPC: 0.18268 (Simulation time: 0 hr 7 min 24 sec) 
Heartbeat CPU  0 instructions:   65000000 cycles:   58399601 heartbeat IPC: 0.17118 cumulative IPC: 0.27003 (Simulation time: 0 hr 7 min 25 sec) 
Heartbeat CPU  1 instructions:   61000003 cycles:   61697850 heartbeat IPC: 0.20542 cumulative IPC: 0.29357 (Simulation time: 0 hr 7 min 31 sec) 
Heartbeat CPU  0 instructions:   66000002 cycles:   62446516 heartbeat IPC: 0.24710 cumulative IPC: 0.26760 (Simulation time: 0 hr 7 min 33 sec) 
Heartbeat CPU  3 instructions:   69000000 cycles:   63486631 heartbeat IPC: 0.17364 cumulative IPC: 0.18136 (Simulation time: 0 hr 7 min 35 sec) 
Heartbeat CPU  2 instructions:   69000000 cycles:   63690851 heartbeat IPC: 0.16634 cumulative IPC: 0.19689 (Simulation time: 0 hr 7 min 35 sec) 
Heartbeat CPU  1 instructions:   62000003 cycles:   65645860 heartbeat IPC: 0.25329 cumulative IPC: 0.28973 (Simulation time: 0 hr 7 min 40 sec) 
Heartbeat CPU  0 instructions:   67000001 cycles:   67738528 heartbeat IPC: 0.18896 cumulative IPC: 0.25804 (Simulation time: 0 hr 7 min 44 sec) 
Heartbeat CPU  3 instructions:   70000000 cycles:   68486886 heartbeat IPC: 0.19999 cumulative IPC: 0.18346 (Simulation time: 0 hr 7 min 45 sec) 
Heartbeat CPU  1 instructions:   63000002 cycles:   69110420 heartbeat IPC: 0.28864 cumulative IPC: 0.28964 (Simulation time: 0 hr 7 min 46 sec) 
Heartbeat CPU  2 instructions:   70000000 cycles:   71687160 heartbeat IPC: 0.12506 cumulative IPC: 0.18478 (Simulation time: 0 hr 7 min 51 sec) 
Heartbeat CPU  0 instructions:   68000000 cycles:   72065858 heartbeat IPC: 0.23109 cumulative IPC: 0.25560 (Simulation time: 0 hr 7 min 51 sec) 
Heartbeat CPU  3 instructions:   71000003 cycles:   74694598 heartbeat IPC: 0.16109 cumulative IPC: 0.18071 (Simulation time: 0 hr 7 min 56 sec) 
Heartbeat CPU  0 instructions:   69000002 cycles:   76172242 heartbeat IPC: 0.24352 cumulative IPC: 0.25465 (Simulation time: 0 hr 7 min 58 sec) 
Heartbeat CPU  2 instructions:   71000003 cycles:   76853835 heartbeat IPC: 0.19355 cumulative IPC: 0.18565 (Simulation time: 0 hr 7 min 59 sec) 
Heartbeat CPU  1 instructions:   64000000 cycles:   77140110 heartbeat IPC: 0.12454 cumulative IPC: 0.26459 (Simulation time: 0 hr 8 min 0 sec) 
Heartbeat CPU  3 instructions:   72000000 cycles:   81366609 heartbeat IPC: 0.14988 cumulative IPC: 0.17711 (Simulation time: 0 hr 8 min 7 sec) 
Heartbeat CPU  0 instructions:   70000002 cycles:   82009257 heartbeat IPC: 0.17132 cumulative IPC: 0.24623 (Simulation time: 0 hr 8 min 8 sec) 
Heartbeat CPU  2 instructions:   72000000 cycles:   82127360 heartbeat IPC: 0.18963 cumulative IPC: 0.18601 (Simulation time: 0 hr 8 min 8 sec) 
Heartbeat CPU  1 instructions:   65000002 cycles:   83975487 heartbeat IPC: 0.14630 cumulative IPC: 0.25106 (Simulation time: 0 hr 8 min 11 sec) 
Heartbeat CPU  2 instructions:   73000000 cycles:   86851934 heartbeat IPC: 0.21166 cumulative IPC: 0.18794 (Simulation time: 0 hr 8 min 16 sec) 
Heartbeat CPU  3 instructions:   73000000 cycles:   87507435 heartbeat IPC: 0.16284 cumulative IPC: 0.17573 (Simulation time: 0 hr 8 min 17 sec) 
Heartbeat CPU  0 instructions:   71000003 cycles:   88681230 heartbeat IPC: 0.14988 cumulative IPC: 0.23625 (Simulation time: 0 hr 8 min 19 sec) 
Heartbeat CPU  1 instructions:   66000003 cycles:   89665807 heartbeat IPC: 0.17574 cumulative IPC: 0.24451 (Simulation time: 0 hr 8 min 20 sec) 
Heartbeat CPU  2 instructions:   74000003 cycles:   91061195 heartbeat IPC: 0.23757 cumulative IPC: 0.19107 (Simulation time: 0 hr 8 min 23 sec) 
Heartbeat CPU  3 instructions:   74000001 cycles:   93934472 heartbeat IPC: 0.15559 cumulative IPC: 0.17387 (Simulation time: 0 hr 8 min 28 sec) 
Heartbeat CPU  0 instructions:   72000000 cycles:   95014744 heartbeat IPC: 0.15789 cumulative IPC: 0.22924 (Simulation time: 0 hr 8 min 30 sec) 
Heartbeat CPU  2 instructions:   75000002 cycles:   95348243 heartbeat IPC: 0.23326 cumulative IPC: 0.19361 (Simulation time: 0 hr 8 min 30 sec) 
Heartbeat CPU  1 instructions:   67000002 cycles:   95594851 heartbeat IPC: 0.16866 cumulative IPC: 0.23820 (Simulation time: 0 hr 8 min 31 sec) 
Heartbeat CPU  3 instructions:   75000002 cycles:   98757413 heartbeat IPC: 0.20734 cumulative IPC: 0.17604 (Simulation time: 0 hr 8 min 37 sec) 
Heartbeat CPU  2 instructions:   76000000 cycles:   98840096 heartbeat IPC: 0.28638 cumulative IPC: 0.19795 (Simulation time: 0 hr 8 min 37 sec) 
Heartbeat CPU  0 instructions:   73000001 cycles:   99714283 heartbeat IPC: 0.21279 cumulative IPC: 0.22822 (Simulation time: 0 hr 8 min 39 sec) 
Heartbeat CPU  1 instructions:   68000000 cycles:  100589220 heartbeat IPC: 0.20023 cumulative IPC: 0.23572 (Simulation time: 0 hr 8 min 41 sec) 
Heartbeat CPU  3 instructions:   76000000 cycles:  101411698 heartbeat IPC: 0.37675 cumulative IPC: 0.18294 (Simulation time: 0 hr 8 min 43 sec) 
Heartbeat CPU  2 instructions:   77000000 cycles:  103012049 heartbeat IPC: 0.23970 cumulative IPC: 0.20016 (Simulation time: 0 hr 8 min 46 sec) 
Heartbeat CPU  0 instructions:   74000001 cycles:  104789272 heartbeat IPC: 0.19704 cumulative IPC: 0.22625 (Simulation time: 0 hr 8 min 49 sec) 
Heartbeat CPU  3 instructions:   77000001 cycles:  104970455 heartbeat IPC: 0.28100 cumulative IPC: 0.18726 (Simulation time: 0 hr 8 min 50 sec) 
Heartbeat CPU  1 instructions:   69000000 cycles:  107427209 heartbeat IPC: 0.14624 cumulative IPC: 0.22837 (Simulation time: 0 hr 8 min 54 sec) 
Heartbeat CPU  2 instructions:   78000002 cycles:  107482351 heartbeat IPC: 0.22370 cumulative IPC: 0.20143 (Simulation time: 0 hr 8 min 54 sec) 
Heartbeat CPU  0 instructions:   75000001 cycles:  108336682 heartbeat IPC: 0.28190 cumulative IPC: 0.22860 (Simulation time: 0 hr 8 min 56 sec) 
Heartbeat CPU  2 instructions:   79000003 cycles:  108910356 heartbeat IPC: 0.70028 cumulative IPC: 0.20984 (Simulation time: 0 hr 8 min 58 sec) 
Heartbeat CPU  2 instructions:   80000000 cycles:  109568713 heartbeat IPC: 1.51893 cumulative IPC: 0.21994 (Simulation time: 0 hr 9 min 1 sec) 
Heartbeat CPU  3 instructions:   78000003 cycles:  109598987 heartbeat IPC: 0.21605 cumulative IPC: 0.18882 (Simulation time: 0 hr 9 min 1 sec) 
Heartbeat CPU  0 instructions:   76000000 cycles:  111872833 heartbeat IPC: 0.28279 cumulative IPC: 0.23079 (Simulation time: 0 hr 9 min 7 sec) 
Heartbeat CPU  3 instructions:   79000002 cycles:  112042505 heartbeat IPC: 0.40925 cumulative IPC: 0.19495 (Simulation time: 0 hr 9 min 8 sec) 
Heartbeat CPU  2 instructions:   81000002 cycles:  112237322 heartbeat IPC: 0.37473 cumulative IPC: 0.22463 (Simulation time: 0 hr 9 min 8 sec) 
Heartbeat CPU  3 instructions:   80000000 cycles:  112699941 heartbeat IPC: 1.52106 cumulative IPC: 0.20481 (Simulation time: 0 hr 9 min 10 sec) 
Heartbeat CPU  1 instructions:   70000000 cycles:  114012419 heartbeat IPC: 0.15186 cumulative IPC: 0.22275 (Simulation time: 0 hr 9 min 14 sec) 
Heartbeat CPU  2 instructions:   82000001 cycles:  115251140 heartbeat IPC: 0.33180 cumulative IPC: 0.22818 (Simulation time: 0 hr 9 min 17 sec) 
Heartbeat CPU  3 instructions:   81000002 cycles:  115627397 heartbeat IPC: 0.34159 cumulative IPC: 0.20919 (Simulation time: 0 hr 9 min 18 sec) 
Heartbeat CPU  0 instructions:   77000001 cycles:  116048970 heartbeat IPC: 0.23946 cumulative IPC: 0.23118 (Simulation time: 0 hr 9 min 19 sec) 
Heartbeat CPU  2 instructions:   83000002 cycles:  117898352 heartbeat IPC: 0.37776 cumulative IPC: 0.23241 (Simulation time: 0 hr 9 min 23 sec) 
Heartbeat CPU  3 instructions:   82000000 cycles:  118249340 heartbeat IPC: 0.38140 cumulative IPC: 0.21399 (Simulation time: 0 hr 9 min 24 sec) 
Heartbeat CPU  0 instructions:   78000000 cycles:  120250629 heartbeat IPC: 0.23800 cumulative IPC: 0.23148 (Simulation time: 0 hr 9 min 30 sec) 
Heartbeat CPU  2 instructions:   84000000 cycles:  120514681 heartbeat IPC: 0.38221 cumulative IPC: 0.23648 (Simulation time: 0 hr 9 min 30 sec) 
Heartbeat CPU  1 instructions:   71000002 cycles:  120768522 heartbeat IPC: 0.14801 cumulative IPC: 0.21752 (Simulation time: 0 hr 9 min 31 sec) 
Heartbeat CPU  3 instructions:   83000002 cycles:  120867567 heartbeat IPC: 0.38194 cumulative IPC: 0.21854 (Simulation time: 0 hr 9 min 31 sec) 
Heartbeat CPU  0 instructions:   79000002 cycles:  121768064 heartbeat IPC: 0.65901 cumulative IPC: 0.23813 (Simulation time: 0 hr 9 min 34 sec) 
Heartbeat CPU  0 instructions:   80000000 cycles:  122469426 heartbeat IPC: 1.42579 cumulative IPC: 0.24661 (Simulation time: 0 hr 9 min 37 sec) 
Heartbeat CPU  2 instructions:   85000000 cycles:  123470347 heartbeat IPC: 0.33833 cumulative IPC: 0.23951 (Simulation time: 0 hr 9 min 40 sec) 
Heartbeat CPU  3 instructions:   84000000 cycles:  123958905 heartbeat IPC: 0.32348 cumulative IPC: 0.22180 (Simulation time: 0 hr 9 min 41 sec) 
Heartbeat CPU  0 instructions:   81000002 cycles:  125712799 heartbeat IPC: 0.30832 cumulative IPC: 0.24858 (Simulation time: 0 hr 9 min 46 sec) 
Heartbeat CPU  2 instructions:   86000000 cycles:  126081468 heartbeat IPC: 0.38298 cumulative IPC: 0.24319 (Simulation time: 0 hr 9 min 47 sec) 
Heartbeat CPU  3 instructions:   85000000 cycles:  126670308 heartbeat IPC: 0.36881 cumulative IPC: 0.22569 (Simulation time: 0 hr 9 min 49 sec) 
Heartbeat CPU  1 instructions:   72000000 cycles:  127862795 heartbeat IPC: 0.14096 cumulative IPC: 0.21228 (Simulation time: 0 hr 9 min 52 sec) 
Heartbeat CPU  0 instructions:   82000000 cycles:  128521755 heartbeat IPC: 0.35600 cumulative IPC: 0.25148 (Simulation time: 0 hr 9 min 54 sec) 
Heartbeat CPU  2 instructions:   87000002 cycles:  128698398 heartbeat IPC: 0.38213 cumulative IPC: 0.24667 (Simulation time: 0 hr 9 min 54 sec) 
Heartbeat CPU  3 instructions:   86000002 cycles:  129404272 heartbeat IPC: 0.36577 cumulative IPC: 0.22933 (Simulation time: 0 hr 9 min 56 sec) 
Heartbeat CPU  2 instructions:   88000000 cycles:  131327974 heartbeat IPC: 0.38029 cumulative IPC: 0.24995 (Simulation time: 0 hr 10 min 1 sec) 
Heartbeat CPU  0 instructions:   83000002 cycles:  131976658 heartbeat IPC: 0.28944 cumulative IPC: 0.25269 (Simulation time: 0 hr 10 min 3 sec) 
Heartbeat CPU  3 instructions:   87000002 cycles:  132116428 heartbeat IPC: 0.36871 cumulative IPC: 0.23283 (Simulation time: 0 hr 10 min 3 sec) 
Heartbeat CPU  1 instructions:   73000001 cycles:  133389809 heartbeat IPC: 0.18093 cumulative IPC: 0.21070 (Simulation time: 0 hr 10 min 7 sec) 
Heartbeat CPU  2 instructions:   89000002 cycles:  134422326 heartbeat IPC: 0.32317 cumulative IPC: 0.25201 (Simulation time: 0 hr 10 min 9 sec) 
Heartbeat CPU  3 instructions:   88000000 cycles:  134792794 heartbeat IPC: 0.37364 cumulative IPC: 0.23624 (Simulation time: 0 hr 10 min 10 sec) 
Heartbeat CPU  0 instructions:   84000000 cycles:  135465928 heartbeat IPC: 0.28659 cumulative IPC: 0.25376 (Simulation time: 0 hr 10 min 12 sec) 
Heartbeat CPU  2 instructions:   90000000 cycles:  136986816 heartbeat IPC: 0.38994 cumulative IPC: 0.25514 (Simulation time: 0 hr 10 min 16 sec) 
Heartbeat CPU  3 instructions:   89000001 cycles:  137755463 heartbeat IPC: 0.33753 cumulative IPC: 0.23888 (Simulation time: 0 hr 10 min 18 sec) 
Heartbeat CPU  1 instructions:   74000002 cycles:  138400909 heartbeat IPC: 0.19956 cumulative IPC: 0.21021 (Simulation time: 0 hr 10 min 20 sec) 
Heartbeat CPU  0 instructions:   85000000 cycles:  139456074 heartbeat IPC: 0.25062 cumulative IPC: 0.25365 (Simulation time: 0 hr 10 min 22 sec) 
Heartbeat CPU  2 instructions:   91000003 cycles:  139608565 heartbeat IPC: 0.38143 cumulative IPC: 0.25801 (Simulation time: 0 hr 10 min 23 sec) 
Heartbeat CPU  3 instructions:   90000002 cycles:  140301282 heartbeat IPC: 0.39280 cumulative IPC: 0.24226 (Simulation time: 0 hr 10 min 25 sec) 
Heartbeat CPU  1 instructions:   75000003 cycles:  141836255 heartbeat IPC: 0.29109 cumulative IPC: 0.21257 (Simulation time: 0 hr 10 min 30 sec) 
Heartbeat CPU  0 instructions:   86000000 cycles:  142247873 heartbeat IPC: 0.35819 cumulative IPC: 0.25612 (Simulation time: 0 hr 10 min 31 sec) 
Heartbeat CPU  2 instructions:   92000000 cycles:  142348575 heartbeat IPC: 0.36496 cumulative IPC: 0.26049 (Simulation time: 0 hr 10 min 31 sec) 
Heartbeat CPU  3 instructions:   91000003 cycles:  142930548 heartbeat IPC: 0.38033 cumulative IPC: 0.24532 (Simulation time: 0 hr 10 min 33 sec) 
Heartbeat CPU  0 instructions:   87000003 cycles:  144902536 heartbeat IPC: 0.37670 cumulative IPC: 0.25877 (Simulation time: 0 hr 10 min 39 sec) 
Heartbeat CPU  2 instructions:   93000001 cycles:  144966137 heartbeat IPC: 0.38204 cumulative IPC: 0.26313 (Simulation time: 0 hr 10 min 39 sec) 
Heartbeat CPU  1 instructions:   76000000 cycles:  145627629 heartbeat IPC: 0.26376 cumulative IPC: 0.21417 (Simulation time: 0 hr 10 min 41 sec) 
Heartbeat CPU  3 instructions:   92000000 cycles:  145840995 heartbeat IPC: 0.34359 cumulative IPC: 0.24767 (Simulation time: 0 hr 10 min 42 sec) 
Heartbeat CPU  2 instructions:   94000003 cycles:  147631292 heartbeat IPC: 0.37521 cumulative IPC: 0.26555 (Simulation time: 0 hr 10 min 47 sec) 
Heartbeat CPU  0 instructions:   88000000 cycles:  148093102 heartbeat IPC: 0.31342 cumulative IPC: 0.26018 (Simulation time: 0 hr 10 min 48 sec) 
Heartbeat CPU  3 instructions:   93000001 cycles:  148381916 heartbeat IPC: 0.39356 cumulative IPC: 0.25066 (Simulation time: 0 hr 10 min 49 sec) 
Heartbeat CPU  2 instructions:   95000003 cycles:  150086553 heartbeat IPC: 0.40729 cumulative IPC: 0.26831 (Simulation time: 0 hr 10 min 53 sec) 
Heartbeat CPU  1 instructions:   77000002 cycles:  150200622 heartbeat IPC: 0.21868 cumulative IPC: 0.21433 (Simulation time: 0 hr 10 min 54 sec) 
Heartbeat CPU  3 instructions:   94000003 cycles:  151106081 heartbeat IPC: 0.36709 cumulative IPC: 0.25315 (Simulation time: 0 hr 10 min 56 sec) 
Heartbeat CPU  0 instructions:   89000000 cycles:  151264882 heartbeat IPC: 0.31528 cumulative IPC: 0.26156 (Simulation time: 0 hr 10 min 57 sec) 
Heartbeat CPU  2 instructions:   96000000 cycles:  152240172 heartbeat IPC: 0.46433 cumulative IPC: 0.27161 (Simulation time: 0 hr 11 min 0 sec) 
Heartbeat CPU  3 instructions:   95000000 cycles:  153763772 heartbeat IPC: 0.37627 cumulative IPC: 0.25568 (Simulation time: 0 hr 11 min 4 sec) 
Heartbeat CPU  0 instructions:   90000002 cycles:  153966530 heartbeat IPC: 0.37015 cumulative IPC: 0.26382 (Simulation time: 0 hr 11 min 5 sec) 
Heartbeat CPU  1 instructions:   78000000 cycles:  154788630 heartbeat IPC: 0.21796 cumulative IPC: 0.21446 (Simulation time: 0 hr 11 min 7 sec) 
Heartbeat CPU  2 instructions:   97000001 cycles:  154809183 heartbeat IPC: 0.38926 cumulative IPC: 0.27393 (Simulation time: 0 hr 11 min 7 sec) 
Heartbeat CPU  3 instructions:   96000000 cycles:  156493831 heartbeat IPC: 0.36629 cumulative IPC: 0.25796 (Simulation time: 0 hr 11 min 13 sec) 
Heartbeat CPU  0 instructions:   91000003 cycles:  156645405 heartbeat IPC: 0.37329 cumulative IPC: 0.26603 (Simulation time: 0 hr 11 min 14 sec) 
Heartbeat CPU  1 instructions:   79000003 cycles:  156708178 heartbeat IPC: 0.52096 cumulative IPC: 0.21890 (Simulation time: 0 hr 11 min 14 sec) 
Heartbeat CPU  2 instructions:   98000001 cycles:  157541724 heartbeat IPC: 0.36596 cumulative IPC: 0.27581 (Simulation time: 0 hr 11 min 18 sec) 
Heartbeat CPU  1 instructions:   80000000 cycles:  159081508 heartbeat IPC: 0.42135 cumulative IPC: 0.22246 (Simulation time: 0 hr 11 min 23 sec) 
Heartbeat CPU  3 instructions:   97000003 cycles:  159489637 heartbeat IPC: 0.33380 cumulative IPC: 0.25964 (Simulation time: 0 hr 11 min 24 sec) 
Heartbeat CPU  0 instructions:   92000000 cycles:  160266620 heartbeat IPC: 0.27615 cumulative IPC: 0.26630 (Simulation time: 0 hr 11 min 27 sec) 
Heartbeat CPU  2 instructions:   99000002 cycles:  161042025 heartbeat IPC: 0.28569 cumulative IPC: 0.27607 (Simulation time: 0 hr 11 min 29 sec) 
Heartbeat CPU  3 instructions:   98000003 cycles:  162231521 heartbeat IPC: 0.36471 cumulative IPC: 0.26173 (Simulation time: 0 hr 11 min 33 sec) 
Heartbeat CPU  1 instructions:   81000002 cycles:  162283656 heartbeat IPC: 0.31229 cumulative IPC: 0.22455 (Simulation time: 0 hr 11 min 34 sec) 
Heartbeat CPU  0 instructions:   93000003 cycles:  163015659 heartbeat IPC: 0.36376 cumulative IPC: 0.26823 (Simulation time: 0 hr 11 min 36 sec) 
*** Reached end of trace for Core: 2 Repeating trace: /data3/CASSANDRA/traces/cassandra_phase4_core2.trace.xz
Heartbeat CPU  2 instructions:  100000000 cycles:  163652841 heartbeat IPC: 0.38302 cumulative IPC: 0.27807 (Simulation time: 0 hr 11 min 38 sec) 
Heartbeat CPU  1 instructions:   82000002 cycles:  164906979 heartbeat IPC: 0.38120 cumulative IPC: 0.22747 (Simulation time: 0 hr 11 min 42 sec) 
Heartbeat CPU  3 instructions:   99000000 cycles:  164973375 heartbeat IPC: 0.36472 cumulative IPC: 0.26374 (Simulation time: 0 hr 11 min 42 sec) 
Heartbeat CPU  0 instructions:   94000003 cycles:  166024347 heartbeat IPC: 0.33237 cumulative IPC: 0.26959 (Simulation time: 0 hr 11 min 46 sec) 
Heartbeat CPU  2 instructions:  101000001 cycles:  166145230 heartbeat IPC: 0.40122 cumulative IPC: 0.28023 (Simulation time: 0 hr 11 min 46 sec) 
*** Reached end of trace for Core: 3 Repeating trace: /data3/CASSANDRA/traces/cassandra_phase4_core3.trace.xz
Heartbeat CPU  3 instructions:  100000000 cycles:  167151377 heartbeat IPC: 0.45914 cumulative IPC: 0.26671 (Simulation time: 0 hr 11 min 49 sec) 
Heartbeat CPU  1 instructions:   83000001 cycles:  167707402 heartbeat IPC: 0.35709 cumulative IPC: 0.23000 (Simulation time: 0 hr 11 min 51 sec) 
Heartbeat CPU  2 instructions:  102000003 cycles:  168228210 heartbeat IPC: 0.48008 cumulative IPC: 0.28312 (Simulation time: 0 hr 11 min 53 sec) 
Heartbeat CPU  0 instructions:   95000001 cycles:  169719103 heartbeat IPC: 0.27065 cumulative IPC: 0.26962 (Simulation time: 0 hr 11 min 57 sec) 
Heartbeat CPU  3 instructions:  101000002 cycles:  169786234 heartbeat IPC: 0.37953 cumulative IPC: 0.26876 (Simulation time: 0 hr 11 min 57 sec) 
Heartbeat CPU  1 instructions:   84000000 cycles:  170491215 heartbeat IPC: 0.35922 cumulative IPC: 0.23246 (Simulation time: 0 hr 11 min 59 sec) 
Heartbeat CPU  2 instructions:  103000001 cycles:  171723935 heartbeat IPC: 0.28606 cumulative IPC: 0.28319 (Simulation time: 0 hr 12 min 4 sec) 
Heartbeat CPU  3 instructions:  102000003 cycles:  171904863 heartbeat IPC: 0.47200 cumulative IPC: 0.27167 (Simulation time: 0 hr 12 min 4 sec) 
Heartbeat CPU  0 instructions:   96000000 cycles:  172408241 heartbeat IPC: 0.37187 cumulative IPC: 0.27148 (Simulation time: 0 hr 12 min 6 sec) 
Heartbeat CPU  1 instructions:   85000001 cycles:  173828238 heartbeat IPC: 0.29967 cumulative IPC: 0.23396 (Simulation time: 0 hr 12 min 10 sec) 
Heartbeat CPU  3 instructions:  103000000 cycles:  174088694 heartbeat IPC: 0.45791 cumulative IPC: 0.27439 (Simulation time: 0 hr 12 min 11 sec) 
Heartbeat CPU  2 instructions:  104000000 cycles:  174572020 heartbeat IPC: 0.35111 cumulative IPC: 0.28448 (Simulation time: 0 hr 12 min 12 sec) 
Heartbeat CPU  0 instructions:   97000002 cycles:  175011478 heartbeat IPC: 0.38414 cumulative IPC: 0.27342 (Simulation time: 0 hr 12 min 14 sec) 
Heartbeat CPU  3 instructions:  104000000 cycles:  176760937 heartbeat IPC: 0.37422 cumulative IPC: 0.27614 (Simulation time: 0 hr 12 min 19 sec) 
Heartbeat CPU  1 instructions:   86000002 cycles:  176778538 heartbeat IPC: 0.33895 cumulative IPC: 0.23599 (Simulation time: 0 hr 12 min 19 sec) 
Heartbeat CPU  2 instructions:  105000001 cycles:  176964149 heartbeat IPC: 0.41804 cumulative IPC: 0.28657 (Simulation time: 0 hr 12 min 20 sec) 
Heartbeat CPU  0 instructions:   98000003 cycles:  177568389 heartbeat IPC: 0.39110 cumulative IPC: 0.27538 (Simulation time: 0 hr 12 min 22 sec) 
Heartbeat CPU  2 instructions:  106000000 cycles:  179232162 heartbeat IPC: 0.44091 cumulative IPC: 0.28883 (Simulation time: 0 hr 12 min 27 sec) 
Heartbeat CPU  1 instructions:   87000001 cycles:  179537836 heartbeat IPC: 0.36241 cumulative IPC: 0.23823 (Simulation time: 0 hr 12 min 28 sec) 
Heartbeat CPU  3 instructions:  105000001 cycles:  179847962 heartbeat IPC: 0.32394 cumulative IPC: 0.27708 (Simulation time: 0 hr 12 min 29 sec) 
Heartbeat CPU  0 instructions:   99000000 cycles:  180231237 heartbeat IPC: 0.37554 cumulative IPC: 0.27709 (Simulation time: 0 hr 12 min 31 sec) 
Heartbeat CPU  2 instructions:  107000000 cycles:  181789923 heartbeat IPC: 0.39097 cumulative IPC: 0.29049 (Simulation time: 0 hr 12 min 36 sec) 
Heartbeat CPU  3 instructions:  106000002 cycles:  182180718 heartbeat IPC: 0.42868 cumulative IPC: 0.27932 (Simulation time: 0 hr 12 min 37 sec) 
Heartbeat CPU  1 instructions:   88000000 cycles:  182584218 heartbeat IPC: 0.32826 cumulative IPC: 0.23996 (Simulation time: 0 hr 12 min 38 sec) 
*** Reached end of trace for Core: 0 Repeating trace: /data3/CASSANDRA/traces/cassandra_phase4_core0.trace.xz
Heartbeat CPU  0 instructions:  100000000 cycles:  182938775 heartbeat IPC: 0.36934 cumulative IPC: 0.27867 (Simulation time: 0 hr 12 min 39 sec) 
Heartbeat CPU  2 instructions:  108000000 cycles:  184334894 heartbeat IPC: 0.39293 cumulative IPC: 0.29212 (Simulation time: 0 hr 12 min 44 sec) 
Heartbeat CPU  3 instructions:  107000001 cycles:  184831473 heartbeat IPC: 0.37725 cumulative IPC: 0.28094 (Simulation time: 0 hr 12 min 45 sec) 
Heartbeat CPU  1 instructions:   89000002 cycles:  185574441 heartbeat IPC: 0.33442 cumulative IPC: 0.24172 (Simulation time: 0 hr 12 min 48 sec) 
Heartbeat CPU  0 instructions:  101000003 cycles:  186208927 heartbeat IPC: 0.30580 cumulative IPC: 0.27921 (Simulation time: 0 hr 12 min 49 sec) 
Heartbeat CPU  2 instructions:  109000000 cycles:  187153316 heartbeat IPC: 0.35481 cumulative IPC: 0.29320 (Simulation time: 0 hr 12 min 52 sec) 
Heartbeat CPU  3 instructions:  108000000 cycles:  187894860 heartbeat IPC: 0.32644 cumulative IPC: 0.28179 (Simulation time: 0 hr 12 min 55 sec) 
Heartbeat CPU  1 instructions:   90000003 cycles:  188212053 heartbeat IPC: 0.37913 cumulative IPC: 0.24393 (Simulation time: 0 hr 12 min 56 sec) 
Heartbeat CPU  0 instructions:  102000001 cycles:  189399288 heartbeat IPC: 0.31344 cumulative IPC: 0.27988 (Simulation time: 0 hr 12 min 59 sec) 
Heartbeat CPU  2 instructions:  110000000 cycles:  189718081 heartbeat IPC: 0.38990 cumulative IPC: 0.29470 (Simulation time: 0 hr 13 min 0 sec) 
Heartbeat CPU  3 instructions:  109000002 cycles:  190557602 heartbeat IPC: 0.37555 cumulative IPC: 0.28329 (Simulation time: 0 hr 13 min 3 sec) 
Heartbeat CPU  1 instructions:   91000003 cycles:  190814508 heartbeat IPC: 0.38425 cumulative IPC: 0.24612 (Simulation time: 0 hr 13 min 3 sec) 
Heartbeat CPU  0 instructions:  103000002 cycles:  191937829 heartbeat IPC: 0.39393 cumulative IPC: 0.28160 (Simulation time: 0 hr 13 min 7 sec) 
Heartbeat CPU  2 instructions:  111000001 cycles:  192953086 heartbeat IPC: 0.30912 cumulative IPC: 0.29498 (Simulation time: 0 hr 13 min 10 sec) 
Heartbeat CPU  3 instructions:  110000000 cycles:  193427232 heartbeat IPC: 0.34848 cumulative IPC: 0.28440 (Simulation time: 0 hr 13 min 11 sec) 
Heartbeat CPU  1 instructions:   92000000 cycles:  193521523 heartbeat IPC: 0.36941 cumulative IPC: 0.24809 (Simulation time: 0 hr 13 min 12 sec) 
Heartbeat CPU  0 instructions:  104000000 cycles:  194479061 heartbeat IPC: 0.39351 cumulative IPC: 0.28327 (Simulation time: 0 hr 13 min 15 sec) 
Heartbeat CPU  2 instructions:  112000000 cycles:  195597351 heartbeat IPC: 0.37818 cumulative IPC: 0.29626 (Simulation time: 0 hr 13 min 18 sec) 
Heartbeat CPU  1 instructions:   93000001 cycles:  195869947 heartbeat IPC: 0.42582 cumulative IPC: 0.25052 (Simulation time: 0 hr 13 min 19 sec) 
Heartbeat CPU  3 instructions:  111000003 cycles:  196042674 heartbeat IPC: 0.38235 cumulative IPC: 0.28589 (Simulation time: 0 hr 13 min 20 sec) 
Heartbeat CPU  0 instructions:  105000001 cycles:  197047284 heartbeat IPC: 0.38937 cumulative IPC: 0.28485 (Simulation time: 0 hr 13 min 23 sec) 
Heartbeat CPU  2 instructions:  113000003 cycles:  198431622 heartbeat IPC: 0.35283 cumulative IPC: 0.29718 (Simulation time: 0 hr 13 min 27 sec) 
Heartbeat CPU  1 instructions:   94000001 cycles:  198466444 heartbeat IPC: 0.38513 cumulative IPC: 0.25253 (Simulation time: 0 hr 13 min 27 sec) 
Heartbeat CPU  3 instructions:  112000000 cycles:  198706247 heartbeat IPC: 0.37543 cumulative IPC: 0.28726 (Simulation time: 0 hr 13 min 28 sec) 
Heartbeat CPU  0 instructions:  106000001 cycles:  199885531 heartbeat IPC: 0.35233 cumulative IPC: 0.28594 (Simulation time: 0 hr 13 min 31 sec) 
Heartbeat CPU  2 instructions:  114000002 cycles:  201180513 heartbeat IPC: 0.36378 cumulative IPC: 0.29821 (Simulation time: 0 hr 13 min 35 sec) 
Heartbeat CPU  3 instructions:  113000002 cycles:  201375110 heartbeat IPC: 0.37469 cumulative IPC: 0.28857 (Simulation time: 0 hr 13 min 36 sec) 
Heartbeat CPU  1 instructions:   95000001 cycles:  201743044 heartbeat IPC: 0.30519 cumulative IPC: 0.25350 (Simulation time: 0 hr 13 min 37 sec) 
Heartbeat CPU  2 instructions:  115000001 cycles:  203567721 heartbeat IPC: 0.41890 cumulative IPC: 0.29982 (Simulation time: 0 hr 13 min 43 sec) 
Heartbeat CPU  1 instructions:   96000000 cycles:  203631810 heartbeat IPC: 0.52945 cumulative IPC: 0.25640 (Simulation time: 0 hr 13 min 43 sec) 
Heartbeat CPU  0 instructions:  107000000 cycles:  203716290 heartbeat IPC: 0.26104 cumulative IPC: 0.28541 (Simulation time: 0 hr 13 min 43 sec) 
Heartbeat CPU  3 instructions:  114000003 cycles:  204303487 heartbeat IPC: 0.34149 cumulative IPC: 0.28943 (Simulation time: 0 hr 13 min 45 sec) 
Heartbeat CPU  1 instructions:   97000002 cycles:  206205141 heartbeat IPC: 0.38860 cumulative IPC: 0.25827 (Simulation time: 0 hr 13 min 51 sec) 
Heartbeat CPU  0 instructions:  108000000 cycles:  206720246 heartbeat IPC: 0.33289 cumulative IPC: 0.28619 (Simulation time: 0 hr 13 min 53 sec) 
Heartbeat CPU  2 instructions:  116000000 cycles:  206738908 heartbeat IPC: 0.31534 cumulative IPC: 0.30009 (Simulation time: 0 hr 13 min 53 sec) 
Heartbeat CPU  3 instructions:  115000000 cycles:  207123113 heartbeat IPC: 0.35466 cumulative IPC: 0.29044 (Simulation time: 0 hr 13 min 54 sec) 
Heartbeat CPU  1 instructions:   98000002 cycles:  208730543 heartbeat IPC: 0.39598 cumulative IPC: 0.26016 (Simulation time: 0 hr 13 min 59 sec) 
Heartbeat CPU  2 instructions:  117000000 cycles:  209588472 heartbeat IPC: 0.35093 cumulative IPC: 0.30087 (Simulation time: 0 hr 14 min 2 sec) 
Heartbeat CPU  3 instructions:  116000000 cycles:  209795831 heartbeat IPC: 0.37415 cumulative IPC: 0.29164 (Simulation time: 0 hr 14 min 2 sec) 
Heartbeat CPU  0 instructions:  109000002 cycles:  209850964 heartbeat IPC: 0.31942 cumulative IPC: 0.28675 (Simulation time: 0 hr 14 min 3 sec) 
Heartbeat CPU  1 instructions:   99000002 cycles:  211268435 heartbeat IPC: 0.39403 cumulative IPC: 0.26197 (Simulation time: 0 hr 14 min 7 sec) 
Heartbeat CPU  3 instructions:  117000001 cycles:  212001011 heartbeat IPC: 0.45348 cumulative IPC: 0.29354 (Simulation time: 0 hr 14 min 10 sec) 
Heartbeat CPU  2 instructions:  118000000 cycles:  212089728 heartbeat IPC: 0.39980 cumulative IPC: 0.30219 (Simulation time: 0 hr 14 min 10 sec) 
Heartbeat CPU  0 instructions:  110000000 cycles:  213013210 heartbeat IPC: 0.31623 cumulative IPC: 0.28724 (Simulation time: 0 hr 14 min 13 sec) 
*** Reached end of trace for Core: 1 Repeating trace: /data3/CASSANDRA/traces/cassandra_phase4_core1.trace.xz
Heartbeat CPU  1 instructions:  100000000 cycles:  213998472 heartbeat IPC: 0.36629 cumulative IPC: 0.26348 (Simulation time: 0 hr 14 min 16 sec) 
Heartbeat CPU  2 instructions:  119000003 cycles:  214515641 heartbeat IPC: 0.41222 cumulative IPC: 0.30359 (Simulation time: 0 hr 14 min 17 sec) 
Heartbeat CPU  3 instructions:  118000000 cycles:  215288508 heartbeat IPC: 0.30418 cumulative IPC: 0.29373 (Simulation time: 0 hr 14 min 20 sec) 
Heartbeat CPU  0 instructions:  111000000 cycles:  215664456 heartbeat IPC: 0.37718 cumulative IPC: 0.28849 (Simulation time: 0 hr 14 min 21 sec) 
Heartbeat CPU  1 instructions:  101000000 cycles:  216204292 heartbeat IPC: 0.45335 cumulative IPC: 0.26566 (Simulation time: 0 hr 14 min 23 sec) 
Heartbeat CPU  2 instructions:  120000000 cycles:  216486483 heartbeat IPC: 0.50740 cumulative IPC: 0.30568 (Simulation time: 0 hr 14 min 24 sec) 
Heartbeat CPU  1 instructions:  102000003 cycles:  217816558 heartbeat IPC: 0.62025 cumulative IPC: 0.26861 (Simulation time: 0 hr 14 min 29 sec) 
Heartbeat CPU  0 instructions:  112000000 cycles:  218292258 heartbeat IPC: 0.38055 cumulative IPC: 0.28974 (Simulation time: 0 hr 14 min 30 sec) 
Heartbeat CPU  3 instructions:  119000003 cycles:  218334859 heartbeat IPC: 0.32826 cumulative IPC: 0.29427 (Simulation time: 0 hr 14 min 30 sec) 
Heartbeat CPU  2 instructions:  121000003 cycles:  218909144 heartbeat IPC: 0.41277 cumulative IPC: 0.30701 (Simulation time: 0 hr 14 min 32 sec) 
Heartbeat CPU  1 instructions:  103000001 cycles:  220867087 heartbeat IPC: 0.32781 cumulative IPC: 0.26953 (Simulation time: 0 hr 14 min 38 sec) 
Heartbeat CPU  2 instructions:  122000001 cycles:  220893693 heartbeat IPC: 0.50389 cumulative IPC: 0.30900 (Simulation time: 0 hr 14 min 38 sec) 
Heartbeat CPU  0 instructions:  113000002 cycles:  220948987 heartbeat IPC: 0.37640 cumulative IPC: 0.29091 (Simulation time: 0 hr 14 min 39 sec) 
Heartbeat CPU  3 instructions:  120000000 cycles:  221263350 heartbeat IPC: 0.34147 cumulative IPC: 0.29497 (Simulation time: 0 hr 14 min 40 sec) 
Heartbeat CPU  1 instructions:  104000000 cycles:  223047947 heartbeat IPC: 0.45853 cumulative IPC: 0.27160 (Simulation time: 0 hr 14 min 46 sec) 
Heartbeat CPU  2 instructions:  123000001 cycles:  223359676 heartbeat IPC: 0.40552 cumulative IPC: 0.31020 (Simulation time: 0 hr 14 min 47 sec) 
Heartbeat CPU  3 instructions:  121000000 cycles:  223781579 heartbeat IPC: 0.39710 cumulative IPC: 0.29626 (Simulation time: 0 hr 14 min 48 sec) 
Heartbeat CPU  0 instructions:  114000000 cycles:  224190131 heartbeat IPC: 0.30853 cumulative IPC: 0.29119 (Simulation time: 0 hr 14 min 49 sec) 
Heartbeat CPU  1 instructions:  105000003 cycles:  225756777 heartbeat IPC: 0.36916 cumulative IPC: 0.27291 (Simulation time: 0 hr 14 min 54 sec) 
Heartbeat CPU  2 instructions:  124000000 cycles:  226136676 heartbeat IPC: 0.36010 cumulative IPC: 0.31088 (Simulation time: 0 hr 14 min 56 sec) 
Heartbeat CPU  3 instructions:  122000000 cycles:  226618831 heartbeat IPC: 0.35245 cumulative IPC: 0.29705 (Simulation time: 0 hr 14 min 57 sec) 
Heartbeat CPU  0 instructions:  115000002 cycles:  227146475 heartbeat IPC: 0.33826 cumulative IPC: 0.29188 (Simulation time: 0 hr 14 min 59 sec) 
Heartbeat CPU  1 instructions:  106000000 cycles:  228456386 heartbeat IPC: 0.37042 cumulative IPC: 0.27420 (Simulation time: 0 hr 15 min 3 sec) 
Heartbeat CPU  2 instructions:  125000001 cycles:  228703417 heartbeat IPC: 0.38960 cumulative IPC: 0.31187 (Simulation time: 0 hr 15 min 4 sec) 
Heartbeat CPU  3 instructions:  123000002 cycles:  228846067 heartbeat IPC: 0.44899 cumulative IPC: 0.29870 (Simulation time: 0 hr 15 min 4 sec) 
Heartbeat CPU  0 instructions:  116000000 cycles:  229786957 heartbeat IPC: 0.37872 cumulative IPC: 0.29299 (Simulation time: 0 hr 15 min 7 sec) 
Heartbeat CPU  2 instructions:  126000001 cycles:  231132629 heartbeat IPC: 0.41166 cumulative IPC: 0.31304 (Simulation time: 0 hr 15 min 12 sec) 
Heartbeat CPU  3 instructions:  124000000 cycles:  231276632 heartbeat IPC: 0.41143 cumulative IPC: 0.30003 (Simulation time: 0 hr 15 min 12 sec) 
Heartbeat CPU  1 instructions:  107000002 cycles:  231343998 heartbeat IPC: 0.34631 cumulative IPC: 0.27521 (Simulation time: 0 hr 15 min 12 sec) 
Heartbeat CPU  0 instructions:  117000002 cycles:  232428307 heartbeat IPC: 0.37860 cumulative IPC: 0.29408 (Simulation time: 0 hr 15 min 16 sec) 
Heartbeat CPU  2 instructions:  127000000 cycles:  234044569 heartbeat IPC: 0.34341 cumulative IPC: 0.31346 (Simulation time: 0 hr 15 min 20 sec) 
Heartbeat CPU  1 instructions:  108000000 cycles:  234325182 heartbeat IPC: 0.33544 cumulative IPC: 0.27606 (Simulation time: 0 hr 15 min 21 sec) 
Heartbeat CPU  3 instructions:  125000000 cycles:  234394054 heartbeat IPC: 0.32078 cumulative IPC: 0.30033 (Simulation time: 0 hr 15 min 21 sec) 
Heartbeat CPU  0 instructions:  118000003 cycles:  236210367 heartbeat IPC: 0.26441 cumulative IPC: 0.29355 (Simulation time: 0 hr 15 min 27 sec) 
Heartbeat CPU  1 instructions:  109000000 cycles:  236778537 heartbeat IPC: 0.40761 cumulative IPC: 0.27758 (Simulation time: 0 hr 15 min 28 sec) 
Heartbeat CPU  2 instructions:  128000000 cycles:  236923058 heartbeat IPC: 0.34740 cumulative IPC: 0.31392 (Simulation time: 0 hr 15 min 29 sec) 
Heartbeat CPU  3 instructions:  126000000 cycles:  237272309 heartbeat IPC: 0.34743 cumulative IPC: 0.30097 (Simulation time: 0 hr 15 min 30 sec) 
Heartbeat CPU  1 instructions:  110000001 cycles:  238845142 heartbeat IPC: 0.48389 cumulative IPC: 0.27957 (Simulation time: 0 hr 15 min 34 sec) 
Heartbeat CPU  2 instructions:  129000001 cycles:  239518689 heartbeat IPC: 0.38526 cumulative IPC: 0.31478 (Simulation time: 0 hr 15 min 37 sec) 
Heartbeat CPU  0 instructions:  119000000 cycles:  239626755 heartbeat IPC: 0.29271 cumulative IPC: 0.29354 (Simulation time: 0 hr 15 min 37 sec) 
Heartbeat CPU  3 instructions:  127000003 cycles:  240103819 heartbeat IPC: 0.35317 cumulative IPC: 0.30165 (Simulation time: 0 hr 15 min 38 sec) 
Heartbeat CPU  1 instructions:  111000003 cycles:  241311247 heartbeat IPC: 0.40550 cumulative IPC: 0.28100 (Simulation time: 0 hr 15 min 42 sec) 
Heartbeat CPU  2 instructions:  130000001 cycles:  242082089 heartbeat IPC: 0.39011 cumulative IPC: 0.31567 (Simulation time: 0 hr 15 min 45 sec) 
Heartbeat CPU  3 instructions:  128000000 cycles:  242378624 heartbeat IPC: 0.43960 cumulative IPC: 0.30309 (Simulation time: 0 hr 15 min 46 sec) 
Heartbeat CPU  0 instructions:  120000000 cycles:  242645396 heartbeat IPC: 0.33127 cumulative IPC: 0.29406 (Simulation time: 0 hr 15 min 46 sec) 
Heartbeat CPU  1 instructions:  112000000 cycles:  243792748 heartbeat IPC: 0.40298 cumulative IPC: 0.28238 (Simulation time: 0 hr 15 min 50 sec) 
Heartbeat CPU  2 instructions:  131000000 cycles:  244635618 heartbeat IPC: 0.39161 cumulative IPC: 0.31655 (Simulation time: 0 hr 15 min 52 sec) 
Heartbeat CPU  3 instructions:  129000002 cycles:  245279257 heartbeat IPC: 0.34475 cumulative IPC: 0.30364 (Simulation time: 0 hr 15 min 54 sec) 
Heartbeat CPU  0 instructions:  121000001 cycles:  245767554 heartbeat IPC: 0.32029 cumulative IPC: 0.29443 (Simulation time: 0 hr 15 min 56 sec) 
Heartbeat CPU  1 instructions:  113000003 cycles:  246336034 heartbeat IPC: 0.39319 cumulative IPC: 0.28365 (Simulation time: 0 hr 15 min 58 sec) 
Heartbeat CPU  2 instructions:  132000000 cycles:  247417884 heartbeat IPC: 0.35942 cumulative IPC: 0.31708 (Simulation time: 0 hr 16 min 1 sec) 
Heartbeat CPU  3 instructions:  130000000 cycles:  248256139 heartbeat IPC: 0.33592 cumulative IPC: 0.30407 (Simulation time: 0 hr 16 min 3 sec) 
Heartbeat CPU  1 instructions:  114000003 cycles:  249035362 heartbeat IPC: 0.37046 cumulative IPC: 0.28469 (Simulation time: 0 hr 16 min 6 sec) 
Heartbeat CPU  0 instructions:  122000002 cycles:  249153417 heartbeat IPC: 0.29535 cumulative IPC: 0.29444 (Simulation time: 0 hr 16 min 6 sec) 
Heartbeat CPU  2 instructions:  133000000 cycles:  250060407 heartbeat IPC: 0.37843 cumulative IPC: 0.31780 (Simulation time: 0 hr 16 min 9 sec) 
Heartbeat CPU  3 instructions:  131000002 cycles:  250945951 heartbeat IPC: 0.37177 cumulative IPC: 0.30487 (Simulation time: 0 hr 16 min 12 sec) 
Heartbeat CPU  1 instructions:  115000001 cycles:  251090127 heartbeat IPC: 0.48667 cumulative IPC: 0.28652 (Simulation time: 0 hr 16 min 13 sec) 
Heartbeat CPU  0 instructions:  123000000 cycles:  251796804 heartbeat IPC: 0.37830 cumulative IPC: 0.29542 (Simulation time: 0 hr 16 min 15 sec) 
Heartbeat CPU  2 instructions:  134000003 cycles:  252342541 heartbeat IPC: 0.43819 cumulative IPC: 0.31901 (Simulation time: 0 hr 16 min 17 sec) 
Heartbeat CPU  1 instructions:  116000000 cycles:  253016600 heartbeat IPC: 0.51908 cumulative IPC: 0.28848 (Simulation time: 0 hr 16 min 19 sec) 
Heartbeat CPU  3 instructions:  132000000 cycles:  253614588 heartbeat IPC: 0.37472 cumulative IPC: 0.30568 (Simulation time: 0 hr 16 min 21 sec) 
Heartbeat CPU  0 instructions:  124000000 cycles:  254448810 heartbeat IPC: 0.37707 cumulative IPC: 0.29636 (Simulation time: 0 hr 16 min 23 sec) 
Heartbeat CPU  2 instructions:  135000000 cycles:  254959156 heartbeat IPC: 0.38217 cumulative IPC: 0.31972 (Simulation time: 0 hr 16 min 25 sec) 
[...]
Core_0_L2C_prefetch_useful 1140392
Core_0_L2C_prefetch_useless 2698728
Core_0_L2C_prefetch_late 72401
Core_0_L2C_average_miss_latency 175.24874

Core_0_L2C_rq_access 2261036
Core_0_L2C_rq_forward 0
Core_0_L2C_rq_merged 0
Core_0_L2C_rq_to_cache 2260991
Core_0_L2C_rq_full 0

Core_0_L2C_wq_access 538429
Core_0_L2C_wq_forward 45
Core_0_L2C_wq_merged 0
Core_0_L2C_wq_to_cache 538429
Core_0_L2C_wq_full 0

Core_0_L2C_pq_access 5276946
Core_0_L2C_pq_forward 0
Core_0_L2C_pq_merged 3927
Core_0_L2C_pq_to_cache 5273019
Core_0_L2C_pq_full 0

Core_0_L2C_acc_epochs 217901
Core_0_L2C_acc_level_0 14555
Core_0_L2C_acc_level_1 41961
Core_0_L2C_acc_level_2 71565
Core_0_L2C_acc_level_3 39152
Core_0_L2C_acc_level_4 16525
Core_0_L2C_acc_level_5 8478
Core_0_L2C_acc_level_6 5775
Core_0_L2C_acc_level_7 4282
Core_0_L2C_acc_level_8 3639
Core_0_L2C_acc_level_9 11969

Core_0_LLC_total_access 3906046
Core_0_LLC_total_hit 1950641
Core_0_LLC_total_miss 1955405
Core_0_LLC_loads 814688
Core_0_LLC_load_hit 442616
Core_0_LLC_load_miss 372072
Core_0_LLC_RFOs 188358
Core_0_LLC_RFO_hit 47106
Core_0_LLC_RFO_miss 141252
Core_0_LLC_prefetches 2433208
Core_0_LLC_prefetch_hit 1182572
Core_0_LLC_prefetch_miss 1250636
Core_0_LLC_writebacks 469792
Core_0_LLC_writeback_hit 278347
Core_0_LLC_writeback_miss 191445
Core_0_LLC_prefetch_requested 0
Core_0_LLC_prefetch_dropped 0
Core_0_LLC_prefetch_issued 0
Core_0_LLC_prefetch_filled 7987040
Core_0_LLC_prefetch_useful 173011
Core_0_LLC_prefetch_useless 7748128
Core_0_LLC_prefetch_late 0
Core_0_LLC_average_miss_latency 860.65538

Core_0_LLC_rq_access 4013706
Core_0_LLC_rq_forward 0
Core_0_LLC_rq_merged 0
Core_0_LLC_rq_to_cache 4013632
Core_0_LLC_rq_full 0

Core_0_LLC_wq_access 1927403
Core_0_LLC_wq_forward 92
Core_0_LLC_wq_merged 0
Core_0_LLC_wq_to_cache 1927403
Core_0_LLC_wq_full 0

Core_0_LLC_pq_access 14792865
Core_0_LLC_pq_forward 0
Core_0_LLC_pq_merged 0
Core_0_LLC_pq_to_cache 14792845
Core_0_LLC_pq_full 0

Core_0_LLC_acc_epochs 563083
Core_0_LLC_acc_level_0 521418
Core_0_LLC_acc_level_1 27304
Core_0_LLC_acc_level_2 7987
Core_0_LLC_acc_level_3 2105
Core_0_LLC_acc_level_4 579
Core_0_LLC_acc_level_5 2535
Core_0_LLC_acc_level_6 306
Core_0_LLC_acc_level_7 194
Core_0_LLC_acc_level_8 106
Core_0_LLC_acc_level_9 549

Core_0_major_page_fault 0
Core_0_minor_page_fault 51884

Core_1_instructions 150000000
Core_1_cycles 552368788
Core_1_IPC 0.27156

Core_1_branch_prediction_accuracy 96.65874
Core_1_branch_MPKI 5.09649
Core_1_average_ROB_occupancy_at_mispredict 83.24856

Core_1_L1D_total_access 18259241
Core_1_L1D_total_hit 16421164
Core_1_L1D_total_miss 1838077
Core_1_L1D_loads 12314729
Core_1_L1D_load_hit 10725274
Core_1_L1D_load_miss 1589455
Core_1_L1D_RFOs 5944512
Core_1_L1D_RFO_hit 5695890
Core_1_L1D_RFO_miss 248622
Core_1_L1D_prefetches 0
Core_1_L1D_prefetch_hit 0
Core_1_L1D_prefetch_miss 0
Core_1_L1D_writebacks 0
Core_1_L1D_writeback_hit 0
Core_1_L1D_writeback_miss 0
Core_1_L1D_prefetch_requested 0
Core_1_L1D_prefetch_dropped 0
Core_1_L1D_prefetch_issued 0
Core_1_L1D_prefetch_filled 0
Core_1_L1D_prefetch_useful 0
Core_1_L1D_prefetch_useless 0
Core_1_L1D_prefetch_late 0
Core_1_L1D_average_miss_latency 133.88984

Core_1_L1D_rq_access 20789612
Core_1_L1D_rq_forward 0
Core_1_L1D_rq_merged 8178679
Core_1_L1D_rq_to_cache 12609594
Core_1_L1D_rq_full 0

Core_1_L1D_wq_access 6812531
Core_1_L1D_wq_forward 1339
Core_1_L1D_wq_merged 153360
Core_1_L1D_wq_to_cache 6659171
Core_1_L1D_wq_full 81

Core_1_L1D_pq_access 0
Core_1_L1D_pq_forward 0
Core_1_L1D_pq_merged 0
Core_1_L1D_pq_to_cache 0
Core_1_L1D_pq_full 0

Core_1_L1D_acc_epochs 206416
Core_1_L1D_acc_level_0 206416
Core_1_L1D_acc_level_1 0
Core_1_L1D_acc_level_2 0
Core_1_L1D_acc_level_3 0
Core_1_L1D_acc_level_4 0
Core_1_L1D_acc_level_5 0
Core_1_L1D_acc_level_6 0
Core_1_L1D_acc_level_7 0
Core_1_L1D_acc_level_8 0
Core_1_L1D_acc_level_9 0

Core_1_L1I_total_access 32462747
Core_1_L1I_total_hit 31564303
Core_1_L1I_total_miss 898444
Core_1_L1I_loads 32462747
Core_1_L1I_load_hit 31564303
Core_1_L1I_load_miss 898444
Core_1_L1I_RFOs 0
Core_1_L1I_RFO_hit 0
Core_1_L1I_RFO_miss 0
Core_1_L1I_prefetches 0
Core_1_L1I_prefetch_hit 0
Core_1_L1I_prefetch_miss 0
Core_1_L1I_writebacks 0
Core_1_L1I_writeback_hit 0
Core_1_L1I_writeback_miss 0
Core_1_L1I_prefetch_requested 0
Core_1_L1I_prefetch_dropped 0
Core_1_L1I_prefetch_issued 0
Core_1_L1I_prefetch_filled 0
Core_1_L1I_prefetch_useful 0
Core_1_L1I_prefetch_useless 0
Core_1_L1I_prefetch_late 0
Core_1_L1I_average_miss_latency 75.87541

Core_1_L1I_rq_access 150000006
Core_1_L1I_rq_forward 0
Core_1_L1I_rq_merged 117054224
Core_1_L1I_rq_to_cache 32945782
Core_1_L1I_rq_full 0

Core_1_L1I_wq_access 0
Core_1_L1I_wq_forward 0
Core_1_L1I_wq_merged 0
Core_1_L1I_wq_to_cache 0
Core_1_L1I_wq_full 0

Core_1_L1I_pq_access 0
Core_1_L1I_pq_forward 0
Core_1_L1I_pq_merged 0
Core_1_L1I_pq_to_cache 0
Core_1_L1I_pq_full 0

Core_1_L1I_acc_epochs 206416
Core_1_L1I_acc_level_0 206416
Core_1_L1I_acc_level_1 0
Core_1_L1I_acc_level_2 0
Core_1_L1I_acc_level_3 0
Core_1_L1I_acc_level_4 0
Core_1_L1I_acc_level_5 0
Core_1_L1I_acc_level_6 0
Core_1_L1I_acc_level_7 0
Core_1_L1I_acc_level_8 0
Core_1_L1I_acc_level_9 0

Core_1_L2C_total_access 7132494
Core_1_L2C_total_hit 2890195
Core_1_L2C_total_miss 4242299
Core_1_L2C_loads 2487867
Core_1_L2C_load_hit 1379348
Core_1_L2C_load_miss 1108519
Core_1_L2C_RFOs 248563
Core_1_L2C_RFO_hit 50755
Core_1_L2C_RFO_miss 197808
Core_1_L2C_prefetches 3794718
Core_1_L2C_prefetch_hit 903284
Core_1_L2C_prefetch_miss 2891434
Core_1_L2C_writebacks 601346
Core_1_L2C_writeback_hit 556808
Core_1_L2C_writeback_miss 44538
Core_1_L2C_prefetch_requested 6385740
Core_1_L2C_prefetch_dropped 1610
Core_1_L2C_prefetch_issued 6384130
Core_1_L2C_prefetch_filled 4351777
Core_1_L2C_prefetch_useful 1398910
Core_1_L2C_prefetch_useless 2950553
Core_1_L2C_prefetch_late 156801
Core_1_L2C_average_miss_latency 159.50943

Core_1_L2C_rq_access 2736519
Core_1_L2C_rq_forward 0
Core_1_L2C_rq_merged 0
Core_1_L2C_rq_to_cache 2736429
Core_1_L2C_rq_full 0

Core_1_L2C_wq_access 601346
Core_1_L2C_wq_forward 91
Core_1_L2C_wq_merged 0
Core_1_L2C_wq_to_cache 601346
Core_1_L2C_wq_full 0

Core_1_L2C_pq_access 6384130
Core_1_L2C_pq_forward 0
Core_1_L2C_pq_merged 13422
Core_1_L2C_pq_to_cache 6370707
Core_1_L2C_pq_full 0

Core_1_L2C_acc_epochs 206416
Core_1_L2C_acc_level_0 14706
Core_1_L2C_acc_level_1 42437
Core_1_L2C_acc_level_2 60703
Core_1_L2C_acc_level_3 30908
Core_1_L2C_acc_level_4 13458
Core_1_L2C_acc_level_5 7816
Core_1_L2C_acc_level_6 5669
Core_1_L2C_acc_level_7 4750
Core_1_L2C_acc_level_8 5210
Core_1_L2C_acc_level_9 20759

Core_1_LLC_total_access 4741408
Core_1_LLC_total_hit 2480577
Core_1_LLC_total_miss 2260831
Core_1_LLC_loads 953936
Core_1_LLC_load_hit 538546
Core_1_LLC_load_miss 415390
Core_1_LLC_RFOs 197055
Core_1_LLC_RFO_hit 62814
Core_1_LLC_RFO_miss 134241
Core_1_LLC_prefetches 3046727
Core_1_LLC_prefetch_hit 1500115
Core_1_LLC_prefetch_miss 1546612
Core_1_LLC_writebacks 543690
Core_1_LLC_writeback_hit 379102
Core_1_LLC_writeback_miss 164588
Core_1_LLC_prefetch_requested 0
Core_1_LLC_prefetch_dropped 0
Core_1_LLC_prefetch_issued 0
Core_1_LLC_prefetch_filled 7987040
Core_1_LLC_prefetch_useful 173011
Core_1_LLC_prefetch_useless 7748128
Core_1_LLC_prefetch_late 0
Core_1_LLC_average_miss_latency 744.38551

Core_1_LLC_rq_access 4013706
Core_1_LLC_rq_forward 0
Core_1_LLC_rq_merged 0
Core_1_LLC_rq_to_cache 4013632
Core_1_LLC_rq_full 0

Core_1_LLC_wq_access 1927403
Core_1_LLC_wq_forward 92
Core_1_LLC_wq_merged 0
Core_1_LLC_wq_to_cache 1927403
Core_1_LLC_wq_full 0

Core_1_LLC_pq_access 14792865
Core_1_LLC_pq_forward 0
Core_1_LLC_pq_merged 0
Core_1_LLC_pq_to_cache 14792845
Core_1_LLC_pq_full 0

Core_1_LLC_acc_epochs 563083
Core_1_LLC_acc_level_0 521418
Core_1_LLC_acc_level_1 27304
Core_1_LLC_acc_level_2 7987
Core_1_LLC_acc_level_3 2105
Core_1_LLC_acc_level_4 579
Core_1_LLC_acc_level_5 2535
Core_1_LLC_acc_level_6 306
Core_1_LLC_acc_level_7 194
Core_1_LLC_acc_level_8 106
Core_1_LLC_acc_level_9 549

Core_1_major_page_fault 0
Core_1_minor_page_fault 52291

Core_2_instructions 150000002
Core_2_cycles 481082513
Core_2_IPC 0.31180

Core_2_branch_prediction_accuracy 97.74881
Core_2_branch_MPKI 3.06644
Core_2_average_ROB_occupancy_at_mispredict 106.15266

Core_2_L1D_total_access 16936736
Core_2_L1D_total_hit 15742419
Core_2_L1D_total_miss 1194317
Core_2_L1D_loads 11565032
Core_2_L1D_load_hit 10539612
Core_2_L1D_load_miss 1025420
Core_2_L1D_RFOs 5371704
Core_2_L1D_RFO_hit 5202807
Core_2_L1D_RFO_miss 168897
Core_2_L1D_prefetches 0
Core_2_L1D_prefetch_hit 0
Core_2_L1D_prefetch_miss 0
Core_2_L1D_writebacks 0
Core_2_L1D_writeback_hit 0
Core_2_L1D_writeback_miss 0
Core_2_L1D_prefetch_requested 0
Core_2_L1D_prefetch_dropped 0
Core_2_L1D_prefetch_issued 0
Core_2_L1D_prefetch_filled 0
Core_2_L1D_prefetch_useful 0
Core_2_L1D_prefetch_useless 0
Core_2_L1D_prefetch_late 0
Core_2_L1D_average_miss_latency 175.44438

Core_2_L1D_rq_access 22677728
Core_2_L1D_rq_forward 0
Core_2_L1D_rq_merged 9166088
Core_2_L1D_rq_to_cache 13511178
Core_2_L1D_rq_full 0

Core_2_L1D_wq_access 6989433
Core_2_L1D_wq_forward 462
Core_2_L1D_wq_merged 162163
Core_2_L1D_wq_to_cache 6827270
Core_2_L1D_wq_full 0

Core_2_L1D_pq_access 0
Core_2_L1D_pq_forward 0
Core_2_L1D_pq_merged 0
Core_2_L1D_pq_to_cache 0
Core_2_L1D_pq_full 0

Core_2_L1D_acc_epochs 216212
Core_2_L1D_acc_level_0 216212
Core_2_L1D_acc_level_1 0
Core_2_L1D_acc_level_2 0
Core_2_L1D_acc_level_3 0
Core_2_L1D_acc_level_4 0
Core_2_L1D_acc_level_5 0
Core_2_L1D_acc_level_6 0
Core_2_L1D_acc_level_7 0
Core_2_L1D_acc_level_8 0
Core_2_L1D_acc_level_9 0

Core_2_L1I_total_access 32568574
Core_2_L1I_total_hit 32251115
Core_2_L1I_total_miss 317459
Core_2_L1I_loads 32568574
Core_2_L1I_load_hit 32251115
Core_2_L1I_load_miss 317459
Core_2_L1I_RFOs 0
Core_2_L1I_RFO_hit 0
Core_2_L1I_RFO_miss 0
Core_2_L1I_prefetches 0
Core_2_L1I_prefetch_hit 0
Core_2_L1I_prefetch_miss 0
Core_2_L1I_writebacks 0
Core_2_L1I_writeback_hit 0
Core_2_L1I_writeback_miss 0
Core_2_L1I_prefetch_requested 0
Core_2_L1I_prefetch_dropped 0
Core_2_L1I_prefetch_issued 0
Core_2_L1I_prefetch_filled 0
Core_2_L1I_prefetch_useful 0
Core_2_L1I_prefetch_useless 0
Core_2_L1I_prefetch_late 0
Core_2_L1I_average_miss_latency 99.81057

Core_2_L1I_rq_access 176683306
Core_2_L1I_rq_forward 0
Core_2_L1I_rq_merged 138532761
Core_2_L1I_rq_to_cache 38150545
Core_2_L1I_rq_full 0

Core_2_L1I_wq_access 0
Core_2_L1I_wq_forward 0
Core_2_L1I_wq_merged 0
Core_2_L1I_wq_to_cache 0
Core_2_L1I_wq_full 0

Core_2_L1I_pq_access 0
Core_2_L1I_pq_forward 0
Core_2_L1I_pq_merged 0
Core_2_L1I_pq_to_cache 0
Core_2_L1I_pq_full 0

Core_2_L1I_acc_epochs 216212
Core_2_L1I_acc_level_0 216212
Core_2_L1I_acc_level_1 0
Core_2_L1I_acc_level_2 0
Core_2_L1I_acc_level_3 0
Core_2_L1I_acc_level_4 0
Core_2_L1I_acc_level_5 0
Core_2_L1I_acc_level_6 0
Core_2_L1I_acc_level_7 0
Core_2_L1I_acc_level_8 0
Core_2_L1I_acc_level_9 0

Core_2_L2C_total_access 4064693
Core_2_L2C_total_hit 1470889
Core_2_L2C_total_miss 2593804
Core_2_L2C_loads 1342871
Core_2_L2C_load_hit 704516
Core_2_L2C_load_miss 638355
Core_2_L2C_RFOs 168892
Core_2_L2C_RFO_hit 24246
Core_2_L2C_RFO_miss 144646
Core_2_L2C_prefetches 2150572
Core_2_L2C_prefetch_hit 354593
Core_2_L2C_prefetch_miss 1795979
Core_2_L2C_writebacks 402358
Core_2_L2C_writeback_hit 387534
Core_2_L2C_writeback_miss 14824
Core_2_L2C_prefetch_requested 3949337
Core_2_L2C_prefetch_dropped 211
Core_2_L2C_prefetch_issued 3949126
Core_2_L2C_prefetch_filled 3117124
Core_2_L2C_prefetch_useful 962185
Core_2_L2C_prefetch_useless 2152760
Core_2_L2C_prefetch_late 58592
Core_2_L2C_average_miss_latency 223.16061

Core_2_L2C_rq_access 1805212
Core_2_L2C_rq_forward 0
Core_2_L2C_rq_merged 0
Core_2_L2C_rq_to_cache 1805197
Core_2_L2C_rq_full 0

Core_2_L2C_wq_access 465401
Core_2_L2C_wq_forward 15
Core_2_L2C_wq_merged 0
Core_2_L2C_wq_to_cache 465401
Core_2_L2C_wq_full 0

Core_2_L2C_pq_access 3949126
Core_2_L2C_pq_forward 0
Core_2_L2C_pq_merged 1611
Core_2_L2C_pq_to_cache 3947515
Core_2_L2C_pq_full 0

Core_2_L2C_acc_epochs 216212
Core_2_L2C_acc_level_0 14192
Core_2_L2C_acc_level_1 45439
Core_2_L2C_acc_level_2 70806
Core_2_L2C_acc_level_3 35993
Core_2_L2C_acc_level_4 14000
Core_2_L2C_acc_level_5 7054
Core_2_L2C_acc_level_6 4867
Core_2_L2C_acc_level_7 3826
Core_2_L2C_acc_level_8 3730
Core_2_L2C_acc_level_9 16305

Core_2_LLC_total_access 2957440
Core_2_LLC_total_hit 1153077
Core_2_LLC_total_miss 1804363
Core_2_LLC_loads 591337
Core_2_LLC_load_hit 251181
Core_2_LLC_load_miss 340156
Core_2_LLC_RFOs 144281
Core_2_LLC_RFO_hit 33739
Core_2_LLC_RFO_miss 110542
Core_2_LLC_prefetches 1843352
Core_2_LLC_prefetch_hit 667277
Core_2_LLC_prefetch_miss 1176075
Core_2_LLC_writebacks 378470
Core_2_LLC_writeback_hit 200880
Core_2_LLC_writeback_miss 177590
Core_2_LLC_prefetch_requested 0
Core_2_LLC_prefetch_dropped 0
Core_2_LLC_prefetch_issued 0
Core_2_LLC_prefetch_filled 7987040
Core_2_LLC_prefetch_useful 173011
Core_2_LLC_prefetch_useless 7748128
Core_2_LLC_prefetch_late 0
Core_2_LLC_average_miss_latency 932.70026

Core_2_LLC_rq_access 4013706
Core_2_LLC_rq_forward 0
Core_2_LLC_rq_merged 0
Core_2_LLC_rq_to_cache 4013632
Core_2_LLC_rq_full 0

Core_2_LLC_wq_access 1927403
Core_2_LLC_wq_forward 92
Core_2_LLC_wq_merged 0
Core_2_LLC_wq_to_cache 1927403
Core_2_LLC_wq_full 0

Core_2_LLC_pq_access 14792865
Core_2_LLC_pq_forward 0
Core_2_LLC_pq_merged 0
Core_2_LLC_pq_to_cache 14792845
Core_2_LLC_pq_full 0

Core_2_LLC_acc_epochs 563083
Core_2_LLC_acc_level_0 521418
Core_2_LLC_acc_level_1 27304
Core_2_LLC_acc_level_2 7987
Core_2_LLC_acc_level_3 2105
Core_2_LLC_acc_level_4 579
Core_2_LLC_acc_level_5 2535
Core_2_LLC_acc_level_6 306
Core_2_LLC_acc_level_7 194
Core_2_LLC_acc_level_8 106
Core_2_LLC_acc_level_9 549

Core_2_major_page_fault 0
Core_2_minor_page_fault 49420

Core_3_instructions 150000002
Core_3_cycles 496647827
Core_3_IPC 0.30202

Core_3_branch_prediction_accuracy 97.75677
Core_3_branch_MPKI 3.04333
Core_3_average_ROB_occupancy_at_mispredict 107.89405

Core_3_L1D_total_access 17088683
Core_3_L1D_total_hit 15808352
Core_3_L1D_total_miss 1280331
Core_3_L1D_loads 11661394
Core_3_L1D_load_hit 10564997
Core_3_L1D_load_miss 1096397
Core_3_L1D_RFOs 5427289
Core_3_L1D_RFO_hit 5243355
Core_3_L1D_RFO_miss 183934
Core_3_L1D_prefetches 0
Core_3_L1D_prefetch_hit 0
Core_3_L1D_prefetch_miss 0
Core_3_L1D_writebacks 0
Core_3_L1D_writeback_hit 0
Core_3_L1D_writeback_miss 0
Core_3_L1D_prefetch_requested 0
Core_3_L1D_prefetch_dropped 0
Core_3_L1D_prefetch_issued 0
Core_3_L1D_prefetch_filled 0
Core_3_L1D_prefetch_useful 0
Core_3_L1D_prefetch_useless 0
Core_3_L1D_prefetch_late 0
Core_3_L1D_average_miss_latency 168.40311

Core_3_L1D_rq_access 22198116
Core_3_L1D_rq_forward 0
Core_3_L1D_rq_merged 9020366
Core_3_L1D_rq_to_cache 13177443
Core_3_L1D_rq_full 0

Core_3_L1D_wq_access 6895621
Core_3_L1D_wq_forward 307
Core_3_L1D_wq_merged 159066
Core_3_L1D_wq_to_cache 6736555
Core_3_L1D_wq_full 0

Core_3_L1D_pq_access 0
Core_3_L1D_pq_forward 0
Core_3_L1D_pq_merged 0
Core_3_L1D_pq_to_cache 0
Core_3_L1D_pq_full 0

Core_3_L1D_acc_epochs 211406
Core_3_L1D_acc_level_0 211406
Core_3_L1D_acc_level_1 0
Core_3_L1D_acc_level_2 0
Core_3_L1D_acc_level_3 0
Core_3_L1D_acc_level_4 0
Core_3_L1D_acc_level_5 0
Core_3_L1D_acc_level_6 0
Core_3_L1D_acc_level_7 0
Core_3_L1D_acc_level_8 0
Core_3_L1D_acc_level_9 0

Core_3_L1I_total_access 32321100
Core_3_L1I_total_hit 31998277
Core_3_L1I_total_miss 322823
Core_3_L1I_loads 32321100
Core_3_L1I_load_hit 31998277
Core_3_L1I_load_miss 322823
Core_3_L1I_RFOs 0
Core_3_L1I_RFO_hit 0
Core_3_L1I_RFO_miss 0
Core_3_L1I_prefetches 0
Core_3_L1I_prefetch_hit 0
Core_3_L1I_prefetch_miss 0
Core_3_L1I_writebacks 0
Core_3_L1I_writeback_hit 0
Core_3_L1I_writeback_miss 0
Core_3_L1I_prefetch_requested 0
Core_3_L1I_prefetch_dropped 0
Core_3_L1I_prefetch_issued 0
Core_3_L1I_prefetch_filled 0
Core_3_L1I_prefetch_useful 0
Core_3_L1I_prefetch_useless 0
Core_3_L1I_prefetch_late 0
Core_3_L1I_average_miss_latency 96.02853

Core_3_L1I_rq_access 170262251
Core_3_L1I_rq_forward 0
Core_3_L1I_rq_merged 133592381
Core_3_L1I_rq_to_cache 36669870
Core_3_L1I_rq_full 0

Core_3_L1I_wq_access 0
Core_3_L1I_wq_forward 0
Core_3_L1I_wq_merged 0
Core_3_L1I_wq_to_cache 0
Core_3_L1I_wq_full 0

Core_3_L1I_pq_access 0
Core_3_L1I_pq_forward 0
Core_3_L1I_pq_merged 0
Core_3_L1I_pq_to_cache 0
Core_3_L1I_pq_full 0

Core_3_L1I_acc_epochs 211406
Core_3_L1I_acc_level_0 211406
Core_3_L1I_acc_level_1 0
Core_3_L1I_acc_level_2 0
Core_3_L1I_acc_level_3 0
Core_3_L1I_acc_level_4 0
Core_3_L1I_acc_level_5 0
Core_3_L1I_acc_level_6 0
Core_3_L1I_acc_level_7 0
Core_3_L1I_acc_level_8 0
Core_3_L1I_acc_level_9 0

Core_3_L2C_total_access 4304403
Core_3_L2C_total_hit 1569244
Core_3_L2C_total_miss 2735159
Core_3_L2C_loads 1419213
Core_3_L2C_load_hit 742994
Core_3_L2C_load_miss 676219
Core_3_L2C_RFOs 183918
Core_3_L2C_RFO_hit 24995
Core_3_L2C_RFO_miss 158923
Core_3_L2C_prefetches 2280710
Core_3_L2C_prefetch_hit 394958
Core_3_L2C_prefetch_miss 1885752
Core_3_L2C_writebacks 420562
Core_3_L2C_writeback_hit 406297
Core_3_L2C_writeback_miss 14265
Core_3_L2C_prefetch_requested 4040086
Core_3_L2C_prefetch_dropped 588
Core_3_L2C_prefetch_issued 4039498
Core_3_L2C_prefetch_filled 3133980
Core_3_L2C_prefetch_useful 951334
Core_3_L2C_prefetch_useless 2180495
Core_3_L2C_prefetch_late 61217
Core_3_L2C_average_miss_latency 210.83346

Core_3_L2C_rq_access 1834254
Core_3_L2C_rq_forward 0
Core_3_L2C_rq_merged 0
Core_3_L2C_rq_to_cache 1834230
Core_3_L2C_rq_full 0

Core_3_L2C_wq_access 473696
Core_3_L2C_wq_forward 25
Core_3_L2C_wq_merged 0
Core_3_L2C_wq_to_cache 473696
Core_3_L2C_wq_full 0

Core_3_L2C_pq_access 4039498
Core_3_L2C_pq_forward 0
Core_3_L2C_pq_merged 3170
Core_3_L2C_pq_to_cache 4036327
Core_3_L2C_pq_full 0

Core_3_L2C_acc_epochs 211406
Core_3_L2C_acc_level_0 14913
Core_3_L2C_acc_level_1 44062
Core_3_L2C_acc_level_2 69041
Core_3_L2C_acc_level_3 33720
Core_3_L2C_acc_level_4 13458
Core_3_L2C_acc_level_5 7173
Core_3_L2C_acc_level_6 4980
Core_3_L2C_acc_level_7 3830
Core_3_L2C_acc_level_8 3761
Core_3_L2C_acc_level_9 16468

Core_3_LLC_total_access 3113765
Core_3_LLC_total_hit 1227069
Core_3_LLC_total_miss 1886696
Core_3_LLC_loads 626098
Core_3_LLC_load_hit 267247
Core_3_LLC_load_miss 358851
Core_3_LLC_RFOs 158479
Core_3_LLC_RFO_hit 42071
Core_3_LLC_RFO_miss 116408
Core_3_LLC_prefetches 1936309
Core_3_LLC_prefetch_hit 707628
Core_3_LLC_prefetch_miss 1228681
Core_3_LLC_writebacks 392879
Core_3_LLC_writeback_hit 210123
Core_3_LLC_writeback_miss 182756
Core_3_LLC_prefetch_requested 0
Core_3_LLC_prefetch_dropped 0
Core_3_LLC_prefetch_issued 0
Core_3_LLC_prefetch_filled 7987040
Core_3_LLC_prefetch_useful 173011
Core_3_LLC_prefetch_useless 7748128
Core_3_LLC_prefetch_late 0
Core_3_LLC_average_miss_latency 891.99841

Core_3_LLC_rq_access 4013706
Core_3_LLC_rq_forward 0
Core_3_LLC_rq_merged 0
Core_3_LLC_rq_to_cache 4013632
Core_3_LLC_rq_full 0

Core_3_LLC_wq_access 1927403
Core_3_LLC_wq_forward 92
Core_3_LLC_wq_merged 0
Core_3_LLC_wq_to_cache 1927403
Core_3_LLC_wq_full 0

Core_3_LLC_pq_access 14792865
Core_3_LLC_pq_forward 0
Core_3_LLC_pq_merged 0
Core_3_LLC_pq_to_cache 14792845
Core_3_LLC_pq_full 0

Core_3_LLC_acc_epochs 563083
Core_3_LLC_acc_level_0 521418
Core_3_LLC_acc_level_1 27304
Core_3_LLC_acc_level_2 7987
Core_3_LLC_acc_level_3 2105
Core_3_LLC_acc_level_4 579
Core_3_LLC_acc_level_5 2535
Core_3_LLC_acc_level_6 306
Core_3_LLC_acc_level_7 194
Core_3_LLC_acc_level_8 106
Core_3_LLC_acc_level_9 549

Core_3_major_page_fault 0
Core_3_minor_page_fault 51989

Channel_0_RQ_row_buffer_hit 441562
Channel_0_RQ_row_buffer_miss 3507592
Channel_0_WQ_row_buffer_hit 130767
Channel_0_WQ_row_buffer_miss 644362
Channel_0_WQ_full 0
Channel_0_dbus_congested 1622250

Channel_1_RQ_row_buffer_hit 446685
Channel_1_RQ_row_buffer_miss 3533583
Channel_1_WQ_row_buffer_hit 132116
Channel_1_WQ_row_buffer_miss 649529
Channel_1_WQ_full 0
Channel_1_dbus_congested 1634693

avg_congested_cycle 9

DRAM_bw_pochs 2252330
DRAM_bw_level_0 1709543
DRAM_bw_level_1 458188
DRAM_bw_level_2 60748
DRAM_bw_level_3 23851
