*************************************************
   ChampSim Multicore Out-of-Order Simulator
   Last compiled: Mar 31 2025 20:14:32
*************************************************
parsing config file: /data3/config/nopref.ini

trace_0 /data3/CASSANDRA/traces/cassandra_phase0_core0.trace.xz
trace_1 /data3/CASSANDRA/traces/cassandra_phase0_core1.trace.xz
trace_2 /data3/CASSANDRA/traces/cassandra_phase0_core2.trace.xz
trace_3 /data3/CASSANDRA/traces/cassandra_phase0_core3.trace.xz
adding L2C_PREFETCHER: NONE
adding L2C_PREFETCHER: NONE
adding L2C_PREFETCHER: NONE
adding L2C_PREFETCHER: NONE
Initialize SHIP state
warmup_instructions 50000000
simulation_instructions 150000000
champsim_seed 8742
measure_ipc 0
measure_ipc_epoch 1000
measure_dram_bw 1
measure_dram_bw_epoch 256
measure_cache_acc 1
measure_cache_acc_epoch 1024
l1d_perfect 0
l2c_perfect 0
llc_perfect 0
l1d_semi_perfect 0
l2c_semi_perfect 0
llc_semi_perfect 0
semi_perfect_cache_page_buffer_size 64

num_cpus 4
cpu_freq 4000
dram_io_freq 2400
page_size 4096
block_size 64
max_read_per_cycle 8
max_fill_per_cycle 1
dram_channels 2
log2_dram_channels 1
dram_ranks 1
dram_banks 8
dram_rows 65536
dram_columns 128
dram_row_size 8
dram_size 8192
dram_pages 2097152

fetch_width 6
decode_width 6
exec_width 4
lq_width 2
sq_width 2
retire_width 4
scheduler_size 128
branch_mispredict_penalty 20
rob_size 256
lq_size 72
sq_size 56
num_instr_destinations_sparc 4
num_instr_destinations 2
num_instr_sources 4

itlb_set 16
itlb_way 8
itlb_rq_size 16
itlb_wq_size 16
itlb_pq_size 0
itlb_mshr_size 8
itlb_latency 1

dtlb_set 16
dtlb_way 4
dtlb_rq_size 16
dtlb_wq_size 16
dtlb_pq_size 0
dtlb_mshr_size 8
dtlb_latency 1

stlb_set 128
stlb_way 12
stlb_rq_size 32
stlb_wq_size 32
stlb_pq_size 0
stlb_mshr_size 16
stlb_latency 8

l1i_size 32
l1i_set 64
l1i_way 8
l1i_rq_size 64
l1i_wq_size 64
l1i_pq_size 8
l1i_mshr_size 8
l1i_latency 1

l1d_size 32
l1d_set 64
l1d_way 8
l1d_rq_size 64
l1d_wq_size 64
l1d_pq_size 8
l1d_mshr_size 16
l1d_latency 4

l2c_size 256
l2c_set 512
l2c_way 8
l2c_rq_size 32
l2c_wq_size 32
l2c_pq_size 32
l2c_mshr_size 32
l2c_latency 10

llc_size 8192
llc_set 8192
llc_way 16
llc_rq_size 128
llc_wq_size 128
llc_pq_size 128
llc_mshr_size 256
llc_latency 20

dram_channel_width 8
dram_wq_size 64
dram_rq_size 64
tRP 15
tRCD 15
tCAS 12.5
dram_dbus_turn_around_time 30
dram_write_high_wm 56
dram_write_low_wm 48
min_dram_writes_per_switch 16
dram_mtps 2400
dram_dbus_return_time 13


Heartbeat CPU  3 instructions:    1000002 cycles:     350286 heartbeat IPC: 2.85482 cumulative IPC: 2.85482 (Simulation time: 0 hr 0 min 4 sec) 
Heartbeat CPU  2 instructions:    1000002 cycles:     394739 heartbeat IPC: 2.53332 cumulative IPC: 2.53332 (Simulation time: 0 hr 0 min 5 sec) 
Heartbeat CPU  0 instructions:    1000000 cycles:     536318 heartbeat IPC: 1.86457 cumulative IPC: 1.86457 (Simulation time: 0 hr 0 min 7 sec) 
Heartbeat CPU  1 instructions:    1000001 cycles:     543969 heartbeat IPC: 1.83834 cumulative IPC: 1.83834 (Simulation time: 0 hr 0 min 7 sec) 
Heartbeat CPU  3 instructions:    2000000 cycles:     678134 heartbeat IPC: 3.05019 cumulative IPC: 2.94927 (Simulation time: 0 hr 0 min 9 sec) 
Heartbeat CPU  2 instructions:    2000000 cycles:     731944 heartbeat IPC: 2.96555 cumulative IPC: 2.73245 (Simulation time: 0 hr 0 min 9 sec) 
Heartbeat CPU  0 instructions:    2000000 cycles:     907016 heartbeat IPC: 2.69761 cumulative IPC: 2.20503 (Simulation time: 0 hr 0 min 12 sec) 
Heartbeat CPU  3 instructions:    3000000 cycles:     998539 heartbeat IPC: 3.12105 cumulative IPC: 3.00439 (Simulation time: 0 hr 0 min 13 sec) 
Heartbeat CPU  2 instructions:    3000000 cycles:    1068569 heartbeat IPC: 2.97066 cumulative IPC: 2.80749 (Simulation time: 0 hr 0 min 13 sec) 
Heartbeat CPU  1 instructions:    2000003 cycles:    1288702 heartbeat IPC: 1.34277 cumulative IPC: 1.55195 (Simulation time: 0 hr 0 min 16 sec) 
Heartbeat CPU  3 instructions:    4000000 cycles:    1325952 heartbeat IPC: 3.05425 cumulative IPC: 3.01670 (Simulation time: 0 hr 0 min 16 sec) 
Heartbeat CPU  0 instructions:    3000003 cycles:    1605862 heartbeat IPC: 1.43093 cumulative IPC: 1.86816 (Simulation time: 0 hr 0 min 19 sec) 
Heartbeat CPU  1 instructions:    3000002 cycles:    1637568 heartbeat IPC: 2.86643 cumulative IPC: 1.83199 (Simulation time: 0 hr 0 min 20 sec) 
Heartbeat CPU  3 instructions:    5000001 cycles:    1657856 heartbeat IPC: 3.01292 cumulative IPC: 3.01594 (Simulation time: 0 hr 0 min 20 sec) 
Heartbeat CPU  2 instructions:    4000000 cycles:    1745809 heartbeat IPC: 1.47658 cumulative IPC: 2.29120 (Simulation time: 0 hr 0 min 21 sec) 
Heartbeat CPU  1 instructions:    4000000 cycles:    1980972 heartbeat IPC: 2.91202 cumulative IPC: 2.01921 (Simulation time: 0 hr 0 min 24 sec) 
Heartbeat CPU  0 instructions:    4000000 cycles:    2014805 heartbeat IPC: 2.44532 cumulative IPC: 1.98530 (Simulation time: 0 hr 0 min 25 sec) 
Heartbeat CPU  3 instructions:    6000002 cycles:    2042027 heartbeat IPC: 2.60301 cumulative IPC: 2.93826 (Simulation time: 0 hr 0 min 25 sec) 
Heartbeat CPU  2 instructions:    5000000 cycles:    2092475 heartbeat IPC: 2.88462 cumulative IPC: 2.38951 (Simulation time: 0 hr 0 min 26 sec) 
Heartbeat CPU  1 instructions:    5000003 cycles:    2308902 heartbeat IPC: 3.04944 cumulative IPC: 2.16553 (Simulation time: 0 hr 0 min 29 sec) 
Heartbeat CPU  3 instructions:    7000001 cycles:    2374710 heartbeat IPC: 3.00586 cumulative IPC: 2.94773 (Simulation time: 0 hr 0 min 30 sec) 
Heartbeat CPU  0 instructions:    5000001 cycles:    2390426 heartbeat IPC: 2.66226 cumulative IPC: 2.09168 (Simulation time: 0 hr 0 min 30 sec) 
Heartbeat CPU  2 instructions:    6000003 cycles:    2416077 heartbeat IPC: 3.09022 cumulative IPC: 2.48337 (Simulation time: 0 hr 0 min 31 sec) 
Heartbeat CPU  1 instructions:    6000002 cycles:    2634515 heartbeat IPC: 3.07113 cumulative IPC: 2.27746 (Simulation time: 0 hr 0 min 34 sec) 
Heartbeat CPU  3 instructions:    8000000 cycles:    2701095 heartbeat IPC: 3.06386 cumulative IPC: 2.96176 (Simulation time: 0 hr 0 min 35 sec) 
Heartbeat CPU  0 instructions:    6000002 cycles:    2715229 heartbeat IPC: 3.07879 cumulative IPC: 2.20976 (Simulation time: 0 hr 0 min 36 sec) 
Heartbeat CPU  2 instructions:    7000002 cycles:    2740487 heartbeat IPC: 3.08252 cumulative IPC: 2.55429 (Simulation time: 0 hr 0 min 36 sec) 
Heartbeat CPU  3 instructions:    9000000 cycles:    3021209 heartbeat IPC: 3.12389 cumulative IPC: 2.97894 (Simulation time: 0 hr 0 min 40 sec) 
Heartbeat CPU  0 instructions:    7000000 cycles:    3042221 heartbeat IPC: 3.05817 cumulative IPC: 2.30095 (Simulation time: 0 hr 0 min 40 sec) 
Heartbeat CPU  1 instructions:    7000001 cycles:    3121738 heartbeat IPC: 2.05245 cumulative IPC: 2.24234 (Simulation time: 0 hr 0 min 41 sec) 
Heartbeat CPU  2 instructions:    8000000 cycles:    3232704 heartbeat IPC: 2.03162 cumulative IPC: 2.47471 (Simulation time: 0 hr 0 min 42 sec) 
Heartbeat CPU  0 instructions:    8000000 cycles:    3362143 heartbeat IPC: 3.12576 cumulative IPC: 2.37943 (Simulation time: 0 hr 0 min 43 sec) 
Heartbeat CPU  3 instructions:   10000003 cycles:    3405288 heartbeat IPC: 2.60364 cumulative IPC: 2.93661 (Simulation time: 0 hr 0 min 44 sec) 
Heartbeat CPU  2 instructions:    9000000 cycles:    3582139 heartbeat IPC: 2.86176 cumulative IPC: 2.51247 (Simulation time: 0 hr 0 min 47 sec) 
Heartbeat CPU  1 instructions:    8000000 cycles:    3628493 heartbeat IPC: 1.97334 cumulative IPC: 2.20477 (Simulation time: 0 hr 0 min 47 sec) 
Heartbeat CPU  0 instructions:    9000001 cycles:    3685843 heartbeat IPC: 3.08928 cumulative IPC: 2.44178 (Simulation time: 0 hr 0 min 48 sec) 
Heartbeat CPU  3 instructions:   11000002 cycles:    3842952 heartbeat IPC: 2.28486 cumulative IPC: 2.86238 (Simulation time: 0 hr 0 min 50 sec) 
Heartbeat CPU  1 instructions:    9000002 cycles:    4019553 heartbeat IPC: 2.55716 cumulative IPC: 2.23906 (Simulation time: 0 hr 0 min 52 sec) 
Heartbeat CPU  2 instructions:   10000003 cycles:    4051949 heartbeat IPC: 2.12853 cumulative IPC: 2.46795 (Simulation time: 0 hr 0 min 52 sec) 
Heartbeat CPU  0 instructions:   10000000 cycles:    4090138 heartbeat IPC: 2.47344 cumulative IPC: 2.44491 (Simulation time: 0 hr 0 min 53 sec) 
Heartbeat CPU  3 instructions:   12000000 cycles:    4223515 heartbeat IPC: 2.62768 cumulative IPC: 2.84124 (Simulation time: 0 hr 0 min 55 sec) 
Heartbeat CPU  1 instructions:   10000003 cycles:    4344884 heartbeat IPC: 3.07380 cumulative IPC: 2.30156 (Simulation time: 0 hr 0 min 56 sec) 
Heartbeat CPU  3 instructions:   13000000 cycles:    4581272 heartbeat IPC: 2.79519 cumulative IPC: 2.83764 (Simulation time: 0 hr 0 min 59 sec) 
Heartbeat CPU  2 instructions:   11000000 cycles:    4586012 heartbeat IPC: 1.87243 cumulative IPC: 2.39860 (Simulation time: 0 hr 0 min 59 sec) 
Heartbeat CPU  0 instructions:   11000001 cycles:    4604098 heartbeat IPC: 1.94568 cumulative IPC: 2.38918 (Simulation time: 0 hr 0 min 59 sec) 
Heartbeat CPU  1 instructions:   11000002 cycles:    4745724 heartbeat IPC: 2.49476 cumulative IPC: 2.31788 (Simulation time: 0 hr 1 min 1 sec) 
Heartbeat CPU  2 instructions:   12000000 cycles:    4942457 heartbeat IPC: 2.80548 cumulative IPC: 2.42794 (Simulation time: 0 hr 1 min 4 sec) 
Heartbeat CPU  0 instructions:   12000000 cycles:    4943664 heartbeat IPC: 2.94493 cumulative IPC: 2.42735 (Simulation time: 0 hr 1 min 4 sec) 
Heartbeat CPU  3 instructions:   14000003 cycles:    4945146 heartbeat IPC: 2.74821 cumulative IPC: 2.83106 (Simulation time: 0 hr 1 min 4 sec) 
Heartbeat CPU  1 instructions:   12000000 cycles:    5073184 heartbeat IPC: 3.05380 cumulative IPC: 2.36538 (Simulation time: 0 hr 1 min 6 sec) 
Heartbeat CPU  2 instructions:   13000002 cycles:    5266985 heartbeat IPC: 3.08140 cumulative IPC: 2.46821 (Simulation time: 0 hr 1 min 9 sec) 
Heartbeat CPU  0 instructions:   13000001 cycles:    5269403 heartbeat IPC: 3.06995 cumulative IPC: 2.46707 (Simulation time: 0 hr 1 min 9 sec) 
Heartbeat CPU  3 instructions:   15000002 cycles:    5271991 heartbeat IPC: 3.05955 cumulative IPC: 2.84523 (Simulation time: 0 hr 1 min 9 sec) 
Heartbeat CPU  1 instructions:   13000001 cycles:    5399200 heartbeat IPC: 3.06734 cumulative IPC: 2.40776 (Simulation time: 0 hr 1 min 11 sec) 
Heartbeat CPU  3 instructions:   16000000 cycles:    5596671 heartbeat IPC: 3.07995 cumulative IPC: 2.85884 (Simulation time: 0 hr 1 min 14 sec) 
Heartbeat CPU  2 instructions:   14000002 cycles:    5611309 heartbeat IPC: 2.90424 cumulative IPC: 2.49496 (Simulation time: 0 hr 1 min 14 sec) 
Heartbeat CPU  0 instructions:   14000000 cycles:    5670271 heartbeat IPC: 2.49458 cumulative IPC: 2.46902 (Simulation time: 0 hr 1 min 15 sec) 
Heartbeat CPU  1 instructions:   14000001 cycles:    5739058 heartbeat IPC: 2.94241 cumulative IPC: 2.43942 (Simulation time: 0 hr 1 min 16 sec) 
Heartbeat CPU  2 instructions:   15000000 cycles:    5934970 heartbeat IPC: 3.08965 cumulative IPC: 2.52739 (Simulation time: 0 hr 1 min 19 sec) 
Heartbeat CPU  0 instructions:   15000000 cycles:    6013803 heartbeat IPC: 2.91094 cumulative IPC: 2.49426 (Simulation time: 0 hr 1 min 20 sec) 
Heartbeat CPU  3 instructions:   17000002 cycles:    6045515 heartbeat IPC: 2.22795 cumulative IPC: 2.81200 (Simulation time: 0 hr 1 min 21 sec) 
Heartbeat CPU  1 instructions:   15000003 cycles:    6061734 heartbeat IPC: 3.09909 cumulative IPC: 2.47454 (Simulation time: 0 hr 1 min 21 sec) 
Heartbeat CPU  0 instructions:   16000000 cycles:    6337840 heartbeat IPC: 3.08607 cumulative IPC: 2.52452 (Simulation time: 0 hr 1 min 25 sec) 
Heartbeat CPU  2 instructions:   16000000 cycles:    6339791 heartbeat IPC: 2.47023 cumulative IPC: 2.52374 (Simulation time: 0 hr 1 min 25 sec) 
Heartbeat CPU  3 instructions:   18000001 cycles:    6371231 heartbeat IPC: 3.07016 cumulative IPC: 2.82520 (Simulation time: 0 hr 1 min 25 sec) 
Heartbeat CPU  1 instructions:   16000000 cycles:    6386325 heartbeat IPC: 3.08079 cumulative IPC: 2.50535 (Simulation time: 0 hr 1 min 26 sec) 
Heartbeat CPU  0 instructions:   17000003 cycles:    6717019 heartbeat IPC: 2.63728 cumulative IPC: 2.53088 (Simulation time: 0 hr 1 min 29 sec) 
Heartbeat CPU  1 instructions:   17000000 cycles:    6772688 heartbeat IPC: 2.58824 cumulative IPC: 2.51008 (Simulation time: 0 hr 1 min 30 sec) 
Heartbeat CPU  3 instructions:   19000000 cycles:    6835917 heartbeat IPC: 2.15199 cumulative IPC: 2.77944 (Simulation time: 0 hr 1 min 31 sec) 
Heartbeat CPU  2 instructions:   17000001 cycles:    6854587 heartbeat IPC: 1.94252 cumulative IPC: 2.48009 (Simulation time: 0 hr 1 min 32 sec) 
Heartbeat CPU  0 instructions:   18000001 cycles:    7055512 heartbeat IPC: 2.95426 cumulative IPC: 2.55120 (Simulation time: 0 hr 1 min 34 sec) 
Heartbeat CPU  2 instructions:   18000001 cycles:    7171554 heartbeat IPC: 3.15490 cumulative IPC: 2.50992 (Simulation time: 0 hr 1 min 36 sec) 
Heartbeat CPU  3 instructions:   20000000 cycles:    7171652 heartbeat IPC: 2.97854 cumulative IPC: 2.78876 (Simulation time: 0 hr 1 min 36 sec) 
Heartbeat CPU  1 instructions:   18000002 cycles:    7357874 heartbeat IPC: 1.70886 cumulative IPC: 2.44636 (Simulation time: 0 hr 1 min 38 sec) 
Heartbeat CPU  0 instructions:   19000003 cycles:    7372199 heartbeat IPC: 3.15770 cumulative IPC: 2.57725 (Simulation time: 0 hr 1 min 39 sec) 
Heartbeat CPU  2 instructions:   19000003 cycles:    7495082 heartbeat IPC: 3.09093 cumulative IPC: 2.53500 (Simulation time: 0 hr 1 min 40 sec) 
Heartbeat CPU  3 instructions:   21000000 cycles:    7538676 heartbeat IPC: 2.72462 cumulative IPC: 2.78563 (Simulation time: 0 hr 1 min 41 sec) 
Heartbeat CPU  0 instructions:   20000000 cycles:    7702905 heartbeat IPC: 3.02382 cumulative IPC: 2.59642 (Simulation time: 0 hr 1 min 44 sec) 
Heartbeat CPU  1 instructions:   19000002 cycles:    7768616 heartbeat IPC: 2.43462 cumulative IPC: 2.44574 (Simulation time: 0 hr 1 min 44 sec) 
Heartbeat CPU  2 instructions:   20000000 cycles:    7885124 heartbeat IPC: 2.56382 cumulative IPC: 2.53642 (Simulation time: 0 hr 1 min 46 sec) 
Heartbeat CPU  3 instructions:   22000002 cycles:    7901503 heartbeat IPC: 2.75614 cumulative IPC: 2.78428 (Simulation time: 0 hr 1 min 46 sec) 
Heartbeat CPU  0 instructions:   21000000 cycles:    8027345 heartbeat IPC: 3.08223 cumulative IPC: 2.61606 (Simulation time: 0 hr 1 min 48 sec) 
Heartbeat CPU  1 instructions:   20000000 cycles:    8142964 heartbeat IPC: 2.67131 cumulative IPC: 2.45611 (Simulation time: 0 hr 1 min 50 sec) 
Heartbeat CPU  2 instructions:   21000002 cycles:    8216583 heartbeat IPC: 3.01697 cumulative IPC: 2.55581 (Simulation time: 0 hr 1 min 51 sec) 
Heartbeat CPU  3 instructions:   23000000 cycles:    8230896 heartbeat IPC: 3.03588 cumulative IPC: 2.79435 (Simulation time: 0 hr 1 min 51 sec) 
Heartbeat CPU  0 instructions:   22000001 cycles:    8351867 heartbeat IPC: 3.08146 cumulative IPC: 2.63414 (Simulation time: 0 hr 1 min 53 sec) 
Heartbeat CPU  1 instructions:   21000003 cycles:    8478751 heartbeat IPC: 2.97809 cumulative IPC: 2.47678 (Simulation time: 0 hr 1 min 55 sec) 
Heartbeat CPU  2 instructions:   22000001 cycles:    8537010 heartbeat IPC: 3.12083 cumulative IPC: 2.57701 (Simulation time: 0 hr 1 min 56 sec) 
Heartbeat CPU  3 instructions:   24000000 cycles:    8637547 heartbeat IPC: 2.45911 cumulative IPC: 2.77857 (Simulation time: 0 hr 1 min 58 sec) 
Heartbeat CPU  0 instructions:   23000003 cycles:    8724298 heartbeat IPC: 2.68507 cumulative IPC: 2.63632 (Simulation time: 0 hr 1 min 59 sec) 
Heartbeat CPU  2 instructions:   23000002 cycles:    8867204 heartbeat IPC: 3.02853 cumulative IPC: 2.59383 (Simulation time: 0 hr 2 min 0 sec) 
Heartbeat CPU  3 instructions:   25000001 cycles:    9031041 heartbeat IPC: 2.54134 cumulative IPC: 2.76823 (Simulation time: 0 hr 2 min 2 sec) 
Heartbeat CPU  1 instructions:   22000000 cycles:    9127695 heartbeat IPC: 1.54096 cumulative IPC: 2.41025 (Simulation time: 0 hr 2 min 3 sec) 
Heartbeat CPU  0 instructions:   24000000 cycles:    9174064 heartbeat IPC: 2.22337 cumulative IPC: 2.61607 (Simulation time: 0 hr 2 min 4 sec) 
Heartbeat CPU  2 instructions:   24000000 cycles:    9201705 heartbeat IPC: 2.98952 cumulative IPC: 2.60821 (Simulation time: 0 hr 2 min 4 sec) 
Heartbeat CPU  3 instructions:   26000002 cycles:    9359012 heartbeat IPC: 3.04905 cumulative IPC: 2.77807 (Simulation time: 0 hr 2 min 7 sec) 
Heartbeat CPU  0 instructions:   25000003 cycles:    9498401 heartbeat IPC: 3.08322 cumulative IPC: 2.63202 (Simulation time: 0 hr 2 min 9 sec) 
Heartbeat CPU  2 instructions:   25000000 cycles:    9527641 heartbeat IPC: 3.06809 cumulative IPC: 2.62394 (Simulation time: 0 hr 2 min 9 sec) 
Heartbeat CPU  1 instructions:   23000001 cycles:    9543748 heartbeat IPC: 2.40354 cumulative IPC: 2.40995 (Simulation time: 0 hr 2 min 10 sec) 
Heartbeat CPU  3 instructions:   27000001 cycles:    9685899 heartbeat IPC: 3.05916 cumulative IPC: 2.78756 (Simulation time: 0 hr 2 min 12 sec) 
Heartbeat CPU  0 instructions:   26000000 cycles:    9825020 heartbeat IPC: 3.06166 cumulative IPC: 2.64631 (Simulation time: 0 hr 2 min 14 sec) 
Heartbeat CPU  2 instructions:   26000003 cycles:    9853959 heartbeat IPC: 3.06450 cumulative IPC: 2.63853 (Simulation time: 0 hr 2 min 15 sec) 
Heartbeat CPU  1 instructions:   24000000 cycles:    9866017 heartbeat IPC: 3.10299 cumulative IPC: 2.43259 (Simulation time: 0 hr 2 min 15 sec) 
Heartbeat CPU  3 instructions:   28000000 cycles:   10013102 heartbeat IPC: 3.05620 cumulative IPC: 2.79634 (Simulation time: 0 hr 2 min 17 sec) 
Heartbeat CPU  0 instructions:   27000000 cycles:   10149383 heartbeat IPC: 3.08297 cumulative IPC: 2.66026 (Simulation time: 0 hr 2 min 19 sec) 
Heartbeat CPU  1 instructions:   25000002 cycles:   10191630 heartbeat IPC: 3.07114 cumulative IPC: 2.45299 (Simulation time: 0 hr 2 min 20 sec) 
Heartbeat CPU  2 instructions:   27000000 cycles:   10293129 heartbeat IPC: 2.27702 cumulative IPC: 2.62311 (Simulation time: 0 hr 2 min 21 sec) 
Heartbeat CPU  3 instructions:   29000001 cycles:   10339206 heartbeat IPC: 3.06651 cumulative IPC: 2.80486 (Simulation time: 0 hr 2 min 22 sec) 
Heartbeat CPU  0 instructions:   28000000 cycles:   10473467 heartbeat IPC: 3.08562 cumulative IPC: 2.67342 (Simulation time: 0 hr 2 min 24 sec) 
Heartbeat CPU  1 instructions:   26000000 cycles:   10516240 heartbeat IPC: 3.08061 cumulative IPC: 2.47237 (Simulation time: 0 hr 2 min 24 sec) 
Heartbeat CPU  3 instructions:   30000001 cycles:   10748507 heartbeat IPC: 2.44319 cumulative IPC: 2.79109 (Simulation time: 0 hr 2 min 27 sec) 
Heartbeat CPU  0 instructions:   29000001 cycles:   10795997 heartbeat IPC: 3.10049 cumulative IPC: 2.68618 (Simulation time: 0 hr 2 min 28 sec) 
Heartbeat CPU  1 instructions:   27000001 cycles:   10841718 heartbeat IPC: 3.07241 cumulative IPC: 2.49038 (Simulation time: 0 hr 2 min 29 sec) 
Heartbeat CPU  2 instructions:   28000000 cycles:   10924787 heartbeat IPC: 1.58314 cumulative IPC: 2.56298 (Simulation time: 0 hr 2 min 30 sec) 
Heartbeat CPU  3 instructions:   31000000 cycles:   11068355 heartbeat IPC: 3.12648 cumulative IPC: 2.80078 (Simulation time: 0 hr 2 min 32 sec) 
Heartbeat CPU  0 instructions:   30000002 cycles:   11119938 heartbeat IPC: 3.08698 cumulative IPC: 2.69786 (Simulation time: 0 hr 2 min 33 sec) 
Heartbeat CPU  1 instructions:   28000000 cycles:   11203900 heartbeat IPC: 2.76104 cumulative IPC: 2.49913 (Simulation time: 0 hr 2 min 34 sec) 
Heartbeat CPU  2 instructions:   29000001 cycles:   11303236 heartbeat IPC: 2.64237 cumulative IPC: 2.56564 (Simulation time: 0 hr 2 min 35 sec) 
Heartbeat CPU  3 instructions:   32000000 cycles:   11436338 heartbeat IPC: 2.71752 cumulative IPC: 2.79810 (Simulation time: 0 hr 2 min 37 sec) 
Heartbeat CPU  0 instructions:   31000003 cycles:   11501103 heartbeat IPC: 2.62354 cumulative IPC: 2.69539 (Simulation time: 0 hr 2 min 38 sec) 
Heartbeat CPU  2 instructions:   30000000 cycles:   11637336 heartbeat IPC: 2.99311 cumulative IPC: 2.57791 (Simulation time: 0 hr 2 min 40 sec) 
Heartbeat CPU  1 instructions:   29000002 cycles:   11814787 heartbeat IPC: 1.63697 cumulative IPC: 2.45455 (Simulation time: 0 hr 2 min 42 sec) 
Heartbeat CPU  3 instructions:   33000001 cycles:   11844632 heartbeat IPC: 2.44922 cumulative IPC: 2.78607 (Simulation time: 0 hr 2 min 42 sec) 
Heartbeat CPU  0 instructions:   32000000 cycles:   11875271 heartbeat IPC: 2.67259 cumulative IPC: 2.69468 (Simulation time: 0 hr 2 min 43 sec) 
Heartbeat CPU  2 instructions:   31000000 cycles:   12024186 heartbeat IPC: 2.58498 cumulative IPC: 2.57814 (Simulation time: 0 hr 2 min 44 sec) 
Heartbeat CPU  0 instructions:   33000000 cycles:   12243501 heartbeat IPC: 2.71569 cumulative IPC: 2.69531 (Simulation time: 0 hr 2 min 47 sec) 
Heartbeat CPU  1 instructions:   30000003 cycles:   12258314 heartbeat IPC: 2.25466 cumulative IPC: 2.44732 (Simulation time: 0 hr 2 min 47 sec) 
Heartbeat CPU  3 instructions:   34000001 cycles:   12296740 heartbeat IPC: 2.21186 cumulative IPC: 2.76496 (Simulation time: 0 hr 2 min 48 sec) 
Heartbeat CPU  1 instructions:   31000000 cycles:   12586780 heartbeat IPC: 3.04445 cumulative IPC: 2.46290 (Simulation time: 0 hr 2 min 51 sec) 
Heartbeat CPU  2 instructions:   32000000 cycles:   12617766 heartbeat IPC: 1.68469 cumulative IPC: 2.53611 (Simulation time: 0 hr 2 min 52 sec) 
Heartbeat CPU  3 instructions:   35000000 cycles:   12672981 heartbeat IPC: 2.65787 cumulative IPC: 2.76178 (Simulation time: 0 hr 2 min 52 sec) 
Heartbeat CPU  0 instructions:   34000003 cycles:   12695682 heartbeat IPC: 2.21151 cumulative IPC: 2.67808 (Simulation time: 0 hr 2 min 53 sec) 
Heartbeat CPU  1 instructions:   32000000 cycles:   12994349 heartbeat IPC: 2.45357 cumulative IPC: 2.46261 (Simulation time: 0 hr 2 min 57 sec) 
Heartbeat CPU  3 instructions:   36000000 cycles:   12994867 heartbeat IPC: 3.10669 cumulative IPC: 2.77032 (Simulation time: 0 hr 2 min 57 sec) 
Heartbeat CPU  0 instructions:   35000000 cycles:   13029624 heartbeat IPC: 2.99452 cumulative IPC: 2.68619 (Simulation time: 0 hr 2 min 57 sec) 
Heartbeat CPU  2 instructions:   33000002 cycles:   13056864 heartbeat IPC: 2.27740 cumulative IPC: 2.52741 (Simulation time: 0 hr 2 min 58 sec) 
Heartbeat CPU  3 instructions:   37000001 cycles:   13318458 heartbeat IPC: 3.09032 cumulative IPC: 2.77810 (Simulation time: 0 hr 3 min 2 sec) 
Heartbeat CPU  1 instructions:   33000003 cycles:   13335944 heartbeat IPC: 2.92745 cumulative IPC: 2.47452 (Simulation time: 0 hr 3 min 2 sec) 
Heartbeat CPU  0 instructions:   36000000 cycles:   13349377 heartbeat IPC: 3.12741 cumulative IPC: 2.69676 (Simulation time: 0 hr 3 min 2 sec) 
Heartbeat CPU  2 instructions:   34000000 cycles:   13390832 heartbeat IPC: 2.99429 cumulative IPC: 2.53905 (Simulation time: 0 hr 3 min 3 sec) 
Heartbeat CPU  3 instructions:   38000002 cycles:   13643716 heartbeat IPC: 3.07449 cumulative IPC: 2.78517 (Simulation time: 0 hr 3 min 7 sec) 
Heartbeat CPU  1 instructions:   34000003 cycles:   13667578 heartbeat IPC: 3.01537 cumulative IPC: 2.48764 (Simulation time: 0 hr 3 min 8 sec) 
Heartbeat CPU  0 instructions:   37000001 cycles:   13671300 heartbeat IPC: 3.10634 cumulative IPC: 2.70640 (Simulation time: 0 hr 3 min 8 sec) 
Heartbeat CPU  2 instructions:   35000001 cycles:   13713692 heartbeat IPC: 3.09732 cumulative IPC: 2.55219 (Simulation time: 0 hr 3 min 8 sec) 
Heartbeat CPU  3 instructions:   39000001 cycles:   13968500 heartbeat IPC: 3.07897 cumulative IPC: 2.79200 (Simulation time: 0 hr 3 min 12 sec) 
Heartbeat CPU  0 instructions:   38000003 cycles:   14049988 heartbeat IPC: 2.64070 cumulative IPC: 2.70463 (Simulation time: 0 hr 3 min 13 sec) 
Heartbeat CPU  1 instructions:   35000001 cycles:   14085482 heartbeat IPC: 2.39289 cumulative IPC: 2.48483 (Simulation time: 0 hr 3 min 13 sec) 
Heartbeat CPU  2 instructions:   36000000 cycles:   14200117 heartbeat IPC: 2.05581 cumulative IPC: 2.53519 (Simulation time: 0 hr 3 min 14 sec) 
Heartbeat CPU  3 instructions:   40000000 cycles:   14341896 heartbeat IPC: 2.67812 cumulative IPC: 2.78903 (Simulation time: 0 hr 3 min 16 sec) 
Heartbeat CPU  0 instructions:   39000002 cycles:   14375095 heartbeat IPC: 3.07591 cumulative IPC: 2.71303 (Simulation time: 0 hr 3 min 16 sec) 
Heartbeat CPU  2 instructions:   37000003 cycles:   14620853 heartbeat IPC: 2.37679 cumulative IPC: 2.53063 (Simulation time: 0 hr 3 min 19 sec) 
Heartbeat CPU  0 instructions:   40000000 cycles:   14700275 heartbeat IPC: 3.07521 cumulative IPC: 2.72104 (Simulation time: 0 hr 3 min 21 sec) 
Heartbeat CPU  3 instructions:   41000001 cycles:   14711369 heartbeat IPC: 2.70656 cumulative IPC: 2.78696 (Simulation time: 0 hr 3 min 21 sec) 
Heartbeat CPU  1 instructions:   36000000 cycles:   14802787 heartbeat IPC: 1.39411 cumulative IPC: 2.43197 (Simulation time: 0 hr 3 min 22 sec) 
Heartbeat CPU  2 instructions:   38000003 cycles:   14946709 heartbeat IPC: 3.06884 cumulative IPC: 2.54237 (Simulation time: 0 hr 3 min 24 sec) 
Heartbeat CPU  0 instructions:   41000003 cycles:   15022819 heartbeat IPC: 3.10036 cumulative IPC: 2.72918 (Simulation time: 0 hr 3 min 26 sec) 
Heartbeat CPU  3 instructions:   42000002 cycles:   15040491 heartbeat IPC: 3.03839 cumulative IPC: 2.79246 (Simulation time: 0 hr 3 min 26 sec) 
Heartbeat CPU  1 instructions:   37000000 cycles:   15129309 heartbeat IPC: 3.06258 cumulative IPC: 2.44558 (Simulation time: 0 hr 3 min 27 sec) 
Heartbeat CPU  2 instructions:   39000001 cycles:   15341771 heartbeat IPC: 2.53124 cumulative IPC: 2.54208 (Simulation time: 0 hr 3 min 30 sec) 
Heartbeat CPU  3 instructions:   43000002 cycles:   15503109 heartbeat IPC: 2.16161 cumulative IPC: 2.77364 (Simulation time: 0 hr 3 min 32 sec) 
Heartbeat CPU  1 instructions:   38000003 cycles:   15504264 heartbeat IPC: 2.66699 cumulative IPC: 2.45094 (Simulation time: 0 hr 3 min 32 sec) 
Heartbeat CPU  2 instructions:   40000000 cycles:   15668003 heartbeat IPC: 3.06530 cumulative IPC: 2.55297 (Simulation time: 0 hr 3 min 33 sec) 
Heartbeat CPU  0 instructions:   42000001 cycles:   15706251 heartbeat IPC: 1.46320 cumulative IPC: 2.67409 (Simulation time: 0 hr 3 min 34 sec) 
Heartbeat CPU  3 instructions:   44000000 cycles:   15845092 heartbeat IPC: 2.92412 cumulative IPC: 2.77689 (Simulation time: 0 hr 3 min 36 sec) 
Heartbeat CPU  2 instructions:   41000001 cycles:   15994111 heartbeat IPC: 3.06647 cumulative IPC: 2.56344 (Simulation time: 0 hr 3 min 38 sec) 
Heartbeat CPU  1 instructions:   39000002 cycles:   16011452 heartbeat IPC: 1.97165 cumulative IPC: 2.43576 (Simulation time: 0 hr 3 min 38 sec) 
Heartbeat CPU  0 instructions:   43000000 cycles:   16095145 heartbeat IPC: 2.57139 cumulative IPC: 2.67161 (Simulation time: 0 hr 3 min 40 sec) 
Heartbeat CPU  3 instructions:   45000001 cycles:   16173512 heartbeat IPC: 3.04488 cumulative IPC: 2.78233 (Simulation time: 0 hr 3 min 41 sec) 
Heartbeat CPU  2 instructions:   42000003 cycles:   16311918 heartbeat IPC: 3.14657 cumulative IPC: 2.57480 (Simulation time: 0 hr 3 min 42 sec) 
Heartbeat CPU  1 instructions:   40000000 cycles:   16398585 heartbeat IPC: 2.58309 cumulative IPC: 2.43923 (Simulation time: 0 hr 3 min 44 sec) 
Heartbeat CPU  0 instructions:   44000000 cycles:   16465058 heartbeat IPC: 2.70334 cumulative IPC: 2.67233 (Simulation time: 0 hr 3 min 45 sec) 
Heartbeat CPU  3 instructions:   46000003 cycles:   16517715 heartbeat IPC: 2.90527 cumulative IPC: 2.78489 (Simulation time: 0 hr 3 min 46 sec) 
Heartbeat CPU  2 instructions:   43000001 cycles:   16640625 heartbeat IPC: 3.04222 cumulative IPC: 2.58404 (Simulation time: 0 hr 3 min 48 sec) 
Heartbeat CPU  1 instructions:   41000003 cycles:   16725905 heartbeat IPC: 3.05512 cumulative IPC: 2.45129 (Simulation time: 0 hr 3 min 49 sec) 
Heartbeat CPU  3 instructions:   47000003 cycles:   16837562 heartbeat IPC: 3.12649 cumulative IPC: 2.79138 (Simulation time: 0 hr 3 min 51 sec) 
Heartbeat CPU  0 instructions:   45000000 cycles:   16921903 heartbeat IPC: 2.18893 cumulative IPC: 2.65928 (Simulation time: 0 hr 3 min 52 sec) 
Heartbeat CPU  2 instructions:   44000000 cycles:   16964114 heartbeat IPC: 3.09129 cumulative IPC: 2.59371 (Simulation time: 0 hr 3 min 52 sec) 
Heartbeat CPU  3 instructions:   48000000 cycles:   17164987 heartbeat IPC: 3.05413 cumulative IPC: 2.79639 (Simulation time: 0 hr 3 min 55 sec) 
Heartbeat CPU  1 instructions:   42000002 cycles:   17201200 heartbeat IPC: 2.10395 cumulative IPC: 2.44169 (Simulation time: 0 hr 3 min 55 sec) 
Heartbeat CPU  0 instructions:   46000001 cycles:   17369828 heartbeat IPC: 2.23252 cumulative IPC: 2.64827 (Simulation time: 0 hr 3 min 57 sec) 
Heartbeat CPU  2 instructions:   45000000 cycles:   17375005 heartbeat IPC: 2.43374 cumulative IPC: 2.58993 (Simulation time: 0 hr 3 min 57 sec) 
Heartbeat CPU  3 instructions:   49000003 cycles:   17572356 heartbeat IPC: 2.45478 cumulative IPC: 2.78847 (Simulation time: 0 hr 4 min 0 sec) 
Heartbeat CPU  0 instructions:   47000000 cycles:   17697455 heartbeat IPC: 3.05225 cumulative IPC: 2.65575 (Simulation time: 0 hr 4 min 1 sec) 
Heartbeat CPU  1 instructions:   43000000 cycles:   17784763 heartbeat IPC: 1.71361 cumulative IPC: 2.41780 (Simulation time: 0 hr 4 min 2 sec) 
Heartbeat CPU  3 instructions:   50000003 cycles:   17884508 heartbeat IPC: 3.20357 cumulative IPC: 2.79572 (Simulation time: 0 hr 4 min 4 sec) 
Heartbeat CPU  2 instructions:   46000002 cycles:   17908865 heartbeat IPC: 1.87315 cumulative IPC: 2.56856 (Simulation time: 0 hr 4 min 4 sec) 
Heartbeat CPU  0 instructions:   48000000 cycles:   18023088 heartbeat IPC: 3.07094 cumulative IPC: 2.66325 (Simulation time: 0 hr 4 min 6 sec) 
Heartbeat CPU  1 instructions:   44000000 cycles:   18133501 heartbeat IPC: 2.86748 cumulative IPC: 2.42645 (Simulation time: 0 hr 4 min 7 sec) 
Heartbeat CPU  3 instructions:   51000003 cycles:   18207807 heartbeat IPC: 3.09311 cumulative IPC: 0.05492 (Simulation time: 0 hr 4 min 8 sec) 
Heartbeat CPU  0 instructions:   49000003 cycles:   18349206 heartbeat IPC: 3.06638 cumulative IPC: 2.67042 (Simulation time: 0 hr 4 min 10 sec) 
Heartbeat CPU  1 instructions:   45000000 cycles:   18459084 heartbeat IPC: 3.07141 cumulative IPC: 2.43782 (Simulation time: 0 hr 4 min 12 sec) 
Heartbeat CPU  2 instructions:   47000002 cycles:   18464248 heartbeat IPC: 1.80056 cumulative IPC: 2.54546 (Simulation time: 0 hr 4 min 12 sec) 
Heartbeat CPU  3 instructions:   52000000 cycles:   18638530 heartbeat IPC: 2.32167 cumulative IPC: 0.10730 (Simulation time: 0 hr 4 min 14 sec) 
Heartbeat CPU  0 instructions:   50000002 cycles:   18660963 heartbeat IPC: 3.20762 cumulative IPC: 2.67939 (Simulation time: 0 hr 4 min 15 sec) 
Heartbeat CPU  1 instructions:   46000002 cycles:   18811014 heartbeat IPC: 2.84148 cumulative IPC: 2.44538 (Simulation time: 0 hr 4 min 17 sec) 
Heartbeat CPU  2 instructions:   48000000 cycles:   18868246 heartbeat IPC: 2.47525 cumulative IPC: 2.54396 (Simulation time: 0 hr 4 min 17 sec) 
Heartbeat CPU  0 instructions:   51000001 cycles:   18978240 heartbeat IPC: 3.15182 cumulative IPC: 0.05269 (Simulation time: 0 hr 4 min 19 sec) 
Heartbeat CPU  3 instructions:   53000003 cycles:   19083137 heartbeat IPC: 2.24918 cumulative IPC: 0.15721 (Simulation time: 0 hr 4 min 21 sec) 
Heartbeat CPU  1 instructions:   47000003 cycles:   19161114 heartbeat IPC: 2.85633 cumulative IPC: 2.45288 (Simulation time: 0 hr 4 min 22 sec) 
Heartbeat CPU  2 instructions:   49000000 cycles:   19204040 heartbeat IPC: 2.97802 cumulative IPC: 2.55155 (Simulation time: 0 hr 4 min 23 sec) 
Heartbeat CPU  0 instructions:   52000000 cycles:   19304548 heartbeat IPC: 3.06459 cumulative IPC: 0.10360 (Simulation time: 0 hr 4 min 24 sec) 
Heartbeat CPU  3 instructions:   54000000 cycles:   19467853 heartbeat IPC: 2.59931 cumulative IPC: 0.20547 (Simulation time: 0 hr 4 min 26 sec) 
Heartbeat CPU  1 instructions:   48000000 cycles:   19489552 heartbeat IPC: 3.04471 cumulative IPC: 2.46286 (Simulation time: 0 hr 4 min 27 sec) 
Heartbeat CPU  2 instructions:   50000002 cycles:   19565246 heartbeat IPC: 2.76851 cumulative IPC: 2.55555 (Simulation time: 0 hr 4 min 28 sec) 
Heartbeat CPU  0 instructions:   53000001 cycles:   19681642 heartbeat IPC: 2.65186 cumulative IPC: 0.15243 (Simulation time: 0 hr 4 min 30 sec) 
Heartbeat CPU  3 instructions:   55000000 cycles:   19806653 heartbeat IPC: 2.95159 cumulative IPC: 0.25244 (Simulation time: 0 hr 4 min 31 sec) 
Heartbeat CPU  2 instructions:   51000000 cycles:   19890533 heartbeat IPC: 3.07420 cumulative IPC: 0.05028 (Simulation time: 0 hr 4 min 32 sec) 
Heartbeat CPU  1 instructions:   49000003 cycles:   20117192 heartbeat IPC: 1.59327 cumulative IPC: 2.43573 (Simulation time: 0 hr 4 min 35 sec) 
Heartbeat CPU  3 instructions:   56000000 cycles:   20136738 heartbeat IPC: 3.02952 cumulative IPC: 0.29796 (Simulation time: 0 hr 4 min 35 sec) 
Heartbeat CPU  0 instructions:   54000001 cycles:   20168627 heartbeat IPC: 2.05345 cumulative IPC: 0.19833 (Simulation time: 0 hr 4 min 35 sec) 
Heartbeat CPU  2 instructions:   52000000 cycles:   20325364 heartbeat IPC: 2.29974 cumulative IPC: 0.09840 (Simulation time: 0 hr 4 min 37 sec) 
Heartbeat CPU  3 instructions:   57000001 cycles:   20467416 heartbeat IPC: 3.02409 cumulative IPC: 0.34201 (Simulation time: 0 hr 4 min 39 sec) 
Heartbeat CPU  1 instructions:   50000003 cycles:   20552512 heartbeat IPC: 2.29716 cumulative IPC: 2.43279 (Simulation time: 0 hr 4 min 40 sec) 

Warmup complete CPU  0 instructions:   54719648 cycles:   20552511 (Simulation time: 0 hr 4 min 40 sec) 
Warmup complete CPU  1 instructions:   50000003 cycles:   20552512 (Simulation time: 0 hr 4 min 40 sec) 
Warmup complete CPU  2 instructions:   52257002 cycles:   20552511 (Simulation time: 0 hr 4 min 40 sec) 
Warmup complete CPU  3 instructions:   57262079 cycles:   20552511 (Simulation time: 0 hr 4 min 40 sec) 

Heartbeat CPU  0 instructions:   55000000 cycles:   21375084 heartbeat IPC: 0.82887 cumulative IPC: 0.34082 (Simulation time: 0 hr 4 min 42 sec) 
Heartbeat CPU  3 instructions:   58000001 cycles:   22472483 heartbeat IPC: 0.49874 cumulative IPC: 0.38434 (Simulation time: 0 hr 4 min 44 sec) 
Heartbeat CPU  1 instructions:   51000000 cycles:   23237098 heartbeat IPC: 0.37250 cumulative IPC: 0.37250 (Simulation time: 0 hr 4 min 46 sec) 
Heartbeat CPU  2 instructions:   53000001 cycles:   23572920 heartbeat IPC: 0.30792 cumulative IPC: 0.24599 (Simulation time: 0 hr 4 min 47 sec) 
Heartbeat CPU  0 instructions:   56000000 cycles:   24400542 heartbeat IPC: 0.33053 cumulative IPC: 0.33273 (Simulation time: 0 hr 4 min 49 sec) 
Heartbeat CPU  3 instructions:   59000002 cycles:   25099477 heartbeat IPC: 0.38066 cumulative IPC: 0.38222 (Simulation time: 0 hr 4 min 51 sec) 
Heartbeat CPU  2 instructions:   54000001 cycles:   26366332 heartbeat IPC: 0.35799 cumulative IPC: 0.29980 (Simulation time: 0 hr 4 min 54 sec) 
Heartbeat CPU  1 instructions:   52000000 cycles:   27090117 heartbeat IPC: 0.25954 cumulative IPC: 0.30592 (Simulation time: 0 hr 4 min 56 sec) 
Heartbeat CPU  0 instructions:   57000000 cycles:   27337774 heartbeat IPC: 0.34046 cumulative IPC: 0.33607 (Simulation time: 0 hr 4 min 56 sec) 
Heartbeat CPU  3 instructions:   60000000 cycles:   27670674 heartbeat IPC: 0.38892 cumulative IPC: 0.38464 (Simulation time: 0 hr 4 min 57 sec) 
Heartbeat CPU  2 instructions:   55000003 cycles:   28976830 heartbeat IPC: 0.38307 cumulative IPC: 0.32561 (Simulation time: 0 hr 5 min 1 sec) 
Heartbeat CPU  1 instructions:   53000003 cycles:   29988600 heartbeat IPC: 0.34501 cumulative IPC: 0.31793 (Simulation time: 0 hr 5 min 3 sec) 
Heartbeat CPU  0 instructions:   58000000 cycles:   30302203 heartbeat IPC: 0.33733 cumulative IPC: 0.33646 (Simulation time: 0 hr 5 min 4 sec) 
Heartbeat CPU  2 instructions:   56000000 cycles:   31805688 heartbeat IPC: 0.35350 cumulative IPC: 0.33262 (Simulation time: 0 hr 5 min 7 sec) 
Heartbeat CPU  3 instructions:   61000002 cycles:   32612695 heartbeat IPC: 0.20235 cumulative IPC: 0.30994 (Simulation time: 0 hr 5 min 9 sec) 
Heartbeat CPU  1 instructions:   54000000 cycles:   33118242 heartbeat IPC: 0.31952 cumulative IPC: 0.31833 (Simulation time: 0 hr 5 min 10 sec) 
Heartbeat CPU  0 instructions:   59000003 cycles:   33278764 heartbeat IPC: 0.33596 cumulative IPC: 0.33634 (Simulation time: 0 hr 5 min 11 sec) 
Heartbeat CPU  2 instructions:   57000003 cycles:   34861263 heartbeat IPC: 0.32727 cumulative IPC: 0.33148 (Simulation time: 0 hr 5 min 15 sec) 
Heartbeat CPU  1 instructions:   55000001 cycles:   35546955 heartbeat IPC: 0.41174 cumulative IPC: 0.33346 (Simulation time: 0 hr 5 min 17 sec) 
Heartbeat CPU  0 instructions:   60000000 cycles:   36199616 heartbeat IPC: 0.34236 cumulative IPC: 0.33747 (Simulation time: 0 hr 5 min 18 sec) 
Heartbeat CPU  3 instructions:   62000002 cycles:   37116947 heartbeat IPC: 0.22201 cumulative IPC: 0.28603 (Simulation time: 0 hr 5 min 20 sec) 
Heartbeat CPU  2 instructions:   58000002 cycles:   37532069 heartbeat IPC: 0.37442 cumulative IPC: 0.33823 (Simulation time: 0 hr 5 min 21 sec) 
Heartbeat CPU  1 instructions:   56000000 cycles:   38092485 heartbeat IPC: 0.39285 cumulative IPC: 0.34208 (Simulation time: 0 hr 5 min 23 sec) 
Heartbeat CPU  0 instructions:   61000003 cycles:   39427704 heartbeat IPC: 0.30978 cumulative IPC: 0.33273 (Simulation time: 0 hr 5 min 26 sec) 
Heartbeat CPU  2 instructions:   59000001 cycles:   40162690 heartbeat IPC: 0.38014 cumulative IPC: 0.34385 (Simulation time: 0 hr 5 min 28 sec) 
Heartbeat CPU  1 instructions:   57000000 cycles:   40685426 heartbeat IPC: 0.38566 cumulative IPC: 0.34769 (Simulation time: 0 hr 5 min 29 sec) 
Heartbeat CPU  0 instructions:   62000002 cycles:   42617050 heartbeat IPC: 0.31354 cumulative IPC: 0.32996 (Simulation time: 0 hr 5 min 33 sec) 
Heartbeat CPU  2 instructions:   60000000 cycles:   43096091 heartbeat IPC: 0.34090 cumulative IPC: 0.34347 (Simulation time: 0 hr 5 min 34 sec) 
Heartbeat CPU  1 instructions:   58000000 cycles:   43556063 heartbeat IPC: 0.34835 cumulative IPC: 0.34777 (Simulation time: 0 hr 5 min 35 sec) 
Heartbeat CPU  3 instructions:   63000001 cycles:   43738105 heartbeat IPC: 0.15103 cumulative IPC: 0.24748 (Simulation time: 0 hr 5 min 36 sec) 
Heartbeat CPU  0 instructions:   63000002 cycles:   45447111 heartbeat IPC: 0.35335 cumulative IPC: 0.33262 (Simulation time: 0 hr 5 min 40 sec) 
Heartbeat CPU  2 instructions:   61000000 cycles:   45726149 heartbeat IPC: 0.38022 cumulative IPC: 0.34731 (Simulation time: 0 hr 5 min 40 sec) 
Heartbeat CPU  1 instructions:   59000003 cycles:   46113454 heartbeat IPC: 0.39102 cumulative IPC: 0.35210 (Simulation time: 0 hr 5 min 41 sec) 
Heartbeat CPU  3 instructions:   64000000 cycles:   48141999 heartbeat IPC: 0.22707 cumulative IPC: 0.24422 (Simulation time: 0 hr 5 min 46 sec) 
Heartbeat CPU  0 instructions:   64000000 cycles:   48372175 heartbeat IPC: 0.34187 cumulative IPC: 0.33359 (Simulation time: 0 hr 5 min 47 sec) 
Heartbeat CPU  2 instructions:   62000001 cycles:   48587701 heartbeat IPC: 0.34946 cumulative IPC: 0.34753 (Simulation time: 0 hr 5 min 48 sec) 
Heartbeat CPU  1 instructions:   60000000 cycles:   48683050 heartbeat IPC: 0.38917 cumulative IPC: 0.35549 (Simulation time: 0 hr 5 min 48 sec) 
Heartbeat CPU  0 instructions:   65000000 cycles:   51082689 heartbeat IPC: 0.36893 cumulative IPC: 0.33673 (Simulation time: 0 hr 5 min 54 sec) 
Heartbeat CPU  2 instructions:   63000000 cycles:   51295590 heartbeat IPC: 0.36929 cumulative IPC: 0.34944 (Simulation time: 0 hr 5 min 55 sec) 
Heartbeat CPU  3 instructions:   65000001 cycles:   51342982 heartbeat IPC: 0.31240 cumulative IPC: 0.25131 (Simulation time: 0 hr 5 min 55 sec) 
Heartbeat CPU  1 instructions:   61000002 cycles:   51493067 heartbeat IPC: 0.35587 cumulative IPC: 0.35552 (Simulation time: 0 hr 5 min 55 sec) 
Heartbeat CPU  2 instructions:   64000000 cycles:   54228629 heartbeat IPC: 0.34094 cumulative IPC: 0.34870 (Simulation time: 0 hr 6 min 2 sec) 
Heartbeat CPU  0 instructions:   66000000 cycles:   54365428 heartbeat IPC: 0.30462 cumulative IPC: 0.33361 (Simulation time: 0 hr 6 min 2 sec) 
Heartbeat CPU  3 instructions:   66000000 cycles:   54469330 heartbeat IPC: 0.31986 cumulative IPC: 0.25763 (Simulation time: 0 hr 6 min 2 sec) 
Heartbeat CPU  1 instructions:   62000001 cycles:   54727556 heartbeat IPC: 0.30917 cumulative IPC: 0.35113 (Simulation time: 0 hr 6 min 3 sec) 
Heartbeat CPU  2 instructions:   65000003 cycles:   57354026 heartbeat IPC: 0.31996 cumulative IPC: 0.34626 (Simulation time: 0 hr 6 min 9 sec) 
Heartbeat CPU  0 instructions:   67000002 cycles:   57538025 heartbeat IPC: 0.31520 cumulative IPC: 0.33203 (Simulation time: 0 hr 6 min 10 sec) 
Heartbeat CPU  1 instructions:   63000000 cycles:   58328104 heartbeat IPC: 0.27774 cumulative IPC: 0.34414 (Simulation time: 0 hr 6 min 12 sec) 
Heartbeat CPU  3 instructions:   67000001 cycles:   58333308 heartbeat IPC: 0.25880 cumulative IPC: 0.25775 (Simulation time: 0 hr 6 min 12 sec) 
Heartbeat CPU  2 instructions:   66000001 cycles:   59921061 heartbeat IPC: 0.38955 cumulative IPC: 0.34909 (Simulation time: 0 hr 6 min 16 sec) 
Heartbeat CPU  0 instructions:   68000000 cycles:   60704712 heartbeat IPC: 0.31579 cumulative IPC: 0.33075 (Simulation time: 0 hr 6 min 18 sec) 
Heartbeat CPU  3 instructions:   68000000 cycles:   61082948 heartbeat IPC: 0.36368 cumulative IPC: 0.26493 (Simulation time: 0 hr 6 min 19 sec) 
Heartbeat CPU  1 instructions:   64000000 cycles:   61666357 heartbeat IPC: 0.29956 cumulative IPC: 0.34052 (Simulation time: 0 hr 6 min 21 sec) 
Heartbeat CPU  2 instructions:   67000001 cycles:   62456353 heartbeat IPC: 0.39443 cumulative IPC: 0.35183 (Simulation time: 0 hr 6 min 23 sec) 
Heartbeat CPU  0 instructions:   69000002 cycles:   63503797 heartbeat IPC: 0.35726 cumulative IPC: 0.33248 (Simulation time: 0 hr 6 min 25 sec) 
Heartbeat CPU  3 instructions:   69000000 cycles:   63666817 heartbeat IPC: 0.38702 cumulative IPC: 0.27225 (Simulation time: 0 hr 6 min 26 sec) 
Heartbeat CPU  1 instructions:   65000001 cycles:   64564948 heartbeat IPC: 0.34500 cumulative IPC: 0.34081 (Simulation time: 0 hr 6 min 28 sec) 
Heartbeat CPU  2 instructions:   68000000 cycles:   65097875 heartbeat IPC: 0.37857 cumulative IPC: 0.35341 (Simulation time: 0 hr 6 min 30 sec) 
Heartbeat CPU  0 instructions:   70000001 cycles:   66176429 heartbeat IPC: 0.37416 cumulative IPC: 0.33492 (Simulation time: 0 hr 6 min 33 sec) 
Heartbeat CPU  3 instructions:   70000003 cycles:   66607685 heartbeat IPC: 0.34004 cumulative IPC: 0.27658 (Simulation time: 0 hr 6 min 34 sec) 
Heartbeat CPU  1 instructions:   66000000 cycles:   67379001 heartbeat IPC: 0.35536 cumulative IPC: 0.34169 (Simulation time: 0 hr 6 min 36 sec) 
Heartbeat CPU  2 instructions:   69000002 cycles:   68472831 heartbeat IPC: 0.29630 cumulative IPC: 0.34939 (Simulation time: 0 hr 6 min 39 sec) 
Heartbeat CPU  0 instructions:   71000002 cycles:   68854252 heartbeat IPC: 0.37344 cumulative IPC: 0.33706 (Simulation time: 0 hr 6 min 40 sec) 
Heartbeat CPU  3 instructions:   71000001 cycles:   69435524 heartbeat IPC: 0.35363 cumulative IPC: 0.28104 (Simulation time: 0 hr 6 min 42 sec) 
Heartbeat CPU  1 instructions:   67000003 cycles:   70145244 heartbeat IPC: 0.36150 cumulative IPC: 0.34279 (Simulation time: 0 hr 6 min 43 sec) 
Heartbeat CPU  2 instructions:   70000003 cycles:   71274840 heartbeat IPC: 0.35689 cumulative IPC: 0.34981 (Simulation time: 0 hr 6 min 46 sec) 
Heartbeat CPU  0 instructions:   72000000 cycles:   71541868 heartbeat IPC: 0.37208 cumulative IPC: 0.33890 (Simulation time: 0 hr 6 min 47 sec) 
Heartbeat CPU  3 instructions:   72000000 cycles:   72196037 heartbeat IPC: 0.36225 cumulative IPC: 0.28538 (Simulation time: 0 hr 6 min 49 sec) 
Heartbeat CPU  1 instructions:   68000000 cycles:   72985100 heartbeat IPC: 0.35213 cumulative IPC: 0.34330 (Simulation time: 0 hr 6 min 51 sec) 
Heartbeat CPU  2 instructions:   71000003 cycles:   73833878 heartbeat IPC: 0.39077 cumulative IPC: 0.35177 (Simulation time: 0 hr 6 min 53 sec) 
Heartbeat CPU  0 instructions:   73000000 cycles:   74520233 heartbeat IPC: 0.33575 cumulative IPC: 0.33873 (Simulation time: 0 hr 6 min 55 sec) 
Heartbeat CPU  3 instructions:   73000002 cycles:   75239308 heartbeat IPC: 0.32859 cumulative IPC: 0.28778 (Simulation time: 0 hr 6 min 57 sec) 
Heartbeat CPU  1 instructions:   69000001 cycles:   75970611 heartbeat IPC: 0.33495 cumulative IPC: 0.34285 (Simulation time: 0 hr 6 min 59 sec) 
Heartbeat CPU  2 instructions:   72000000 cycles:   76390142 heartbeat IPC: 0.39119 cumulative IPC: 0.35358 (Simulation time: 0 hr 7 min 0 sec) 
Heartbeat CPU  0 instructions:   74000002 cycles:   77132619 heartbeat IPC: 0.38279 cumulative IPC: 0.34076 (Simulation time: 0 hr 7 min 2 sec) 
Heartbeat CPU  3 instructions:   74000003 cycles:   77997856 heartbeat IPC: 0.36251 cumulative IPC: 0.29137 (Simulation time: 0 hr 7 min 4 sec) 
Heartbeat CPU  1 instructions:   70000003 cycles:   78952429 heartbeat IPC: 0.33537 cumulative IPC: 0.34247 (Simulation time: 0 hr 7 min 7 sec) 
Heartbeat CPU  2 instructions:   73000000 cycles:   79435915 heartbeat IPC: 0.32832 cumulative IPC: 0.35227 (Simulation time: 0 hr 7 min 8 sec) 
Heartbeat CPU  0 instructions:   75000002 cycles:   79657261 heartbeat IPC: 0.39610 cumulative IPC: 0.34313 (Simulation time: 0 hr 7 min 9 sec) 
Heartbeat CPU  3 instructions:   75000002 cycles:   81775274 heartbeat IPC: 0.26473 cumulative IPC: 0.28973 (Simulation time: 0 hr 7 min 14 sec) 
Heartbeat CPU  2 instructions:   74000001 cycles:   82021222 heartbeat IPC: 0.38680 cumulative IPC: 0.35372 (Simulation time: 0 hr 7 min 15 sec) 
Heartbeat CPU  0 instructions:   76000000 cycles:   82099686 heartbeat IPC: 0.40943 cumulative IPC: 0.34576 (Simulation time: 0 hr 7 min 15 sec) 
Heartbeat CPU  1 instructions:   71000002 cycles:   82129592 heartbeat IPC: 0.31475 cumulative IPC: 0.34104 (Simulation time: 0 hr 7 min 15 sec) 
Heartbeat CPU  3 instructions:   76000000 cycles:   84344366 heartbeat IPC: 0.38924 cumulative IPC: 0.29374 (Simulation time: 0 hr 7 min 21 sec) 
Heartbeat CPU  2 instructions:   75000002 cycles:   84607000 heartbeat IPC: 0.38673 cumulative IPC: 0.35506 (Simulation time: 0 hr 7 min 22 sec) 
Heartbeat CPU  1 instructions:   72000000 cycles:   84873348 heartbeat IPC: 0.36446 cumulative IPC: 0.34204 (Simulation time: 0 hr 7 min 22 sec) 
Heartbeat CPU  0 instructions:   77000001 cycles:   85138859 heartbeat IPC: 0.32904 cumulative IPC: 0.34497 (Simulation time: 0 hr 7 min 23 sec) 
Heartbeat CPU  2 instructions:   76000000 cycles:   87103932 heartbeat IPC: 0.40049 cumulative IPC: 0.35676 (Simulation time: 0 hr 7 min 28 sec) 
Heartbeat CPU  3 instructions:   77000002 cycles:   87330804 heartbeat IPC: 0.33485 cumulative IPC: 0.29557 (Simulation time: 0 hr 7 min 29 sec) 
Heartbeat CPU  1 instructions:   73000003 cycles:   87518097 heartbeat IPC: 0.37811 cumulative IPC: 0.34346 (Simulation time: 0 hr 7 min 30 sec) 
Heartbeat CPU  0 instructions:   78000001 cycles:   87933181 heartbeat IPC: 0.35787 cumulative IPC: 0.34550 (Simulation time: 0 hr 7 min 31 sec) 
Heartbeat CPU  2 instructions:   77000000 cycles:   89716413 heartbeat IPC: 0.38278 cumulative IPC: 0.35774 (Simulation time: 0 hr 7 min 35 sec) 
Heartbeat CPU  3 instructions:   78000003 cycles:   89853396 heartbeat IPC: 0.39642 cumulative IPC: 0.29924 (Simulation time: 0 hr 7 min 36 sec) 
Heartbeat CPU  1 instructions:   74000003 cycles:   90213904 heartbeat IPC: 0.37095 cumulative IPC: 0.34452 (Simulation time: 0 hr 7 min 37 sec) 
Heartbeat CPU  0 instructions:   79000000 cycles:   90939866 heartbeat IPC: 0.33259 cumulative IPC: 0.34495 (Simulation time: 0 hr 7 min 39 sec) 
Heartbeat CPU  3 instructions:   79000003 cycles:   92564656 heartbeat IPC: 0.36883 cumulative IPC: 0.30186 (Simulation time: 0 hr 7 min 43 sec) 
Heartbeat CPU  2 instructions:   78000001 cycles:   93038740 heartbeat IPC: 0.30099 cumulative IPC: 0.35514 (Simulation time: 0 hr 7 min 44 sec) 
Heartbeat CPU  1 instructions:   75000002 cycles:   93116796 heartbeat IPC: 0.34448 cumulative IPC: 0.34452 (Simulation time: 0 hr 7 min 44 sec) 
Heartbeat CPU  0 instructions:   80000000 cycles:   94042452 heartbeat IPC: 0.32231 cumulative IPC: 0.34400 (Simulation time: 0 hr 7 min 46 sec) 
Heartbeat CPU  3 instructions:   80000000 cycles:   95164259 heartbeat IPC: 0.38467 cumulative IPC: 0.30475 (Simulation time: 0 hr 7 min 50 sec) 
Heartbeat CPU  2 instructions:   79000001 cycles:   96016147 heartbeat IPC: 0.33586 cumulative IPC: 0.35438 (Simulation time: 0 hr 7 min 52 sec) 
Heartbeat CPU  0 instructions:   81000001 cycles:   96657838 heartbeat IPC: 0.38235 cumulative IPC: 0.34532 (Simulation time: 0 hr 7 min 54 sec) 
Heartbeat CPU  1 instructions:   76000000 cycles:   96682863 heartbeat IPC: 0.28042 cumulative IPC: 0.34152 (Simulation time: 0 hr 7 min 54 sec) 
Heartbeat CPU  3 instructions:   81000000 cycles:   97898861 heartbeat IPC: 0.36568 cumulative IPC: 0.30690 (Simulation time: 0 hr 7 min 57 sec) 
Heartbeat CPU  2 instructions:   80000000 cycles:   98722831 heartbeat IPC: 0.36946 cumulative IPC: 0.35490 (Simulation time: 0 hr 7 min 59 sec) 
Heartbeat CPU  0 instructions:   82000003 cycles:   99636627 heartbeat IPC: 0.33571 cumulative IPC: 0.34495 (Simulation time: 0 hr 8 min 1 sec) 
Heartbeat CPU  1 instructions:   77000003 cycles:  100181327 heartbeat IPC: 0.28584 cumulative IPC: 0.33907 (Simulation time: 0 hr 8 min 2 sec) 
Heartbeat CPU  3 instructions:   82000000 cycles:  100652766 heartbeat IPC: 0.36312 cumulative IPC: 0.30884 (Simulation time: 0 hr 8 min 4 sec) 
Heartbeat CPU  2 instructions:   81000001 cycles:  102053183 heartbeat IPC: 0.30027 cumulative IPC: 0.35267 (Simulation time: 0 hr 8 min 7 sec) 
Heartbeat CPU  0 instructions:   83000002 cycles:  102319940 heartbeat IPC: 0.37267 cumulative IPC: 0.34586 (Simulation time: 0 hr 8 min 8 sec) 
Heartbeat CPU  1 instructions:   78000001 cycles:  103037106 heartbeat IPC: 0.35017 cumulative IPC: 0.33946 (Simulation time: 0 hr 8 min 10 sec) 
Heartbeat CPU  2 instructions:   82000003 cycles:  104597061 heartbeat IPC: 0.39310 cumulative IPC: 0.35390 (Simulation time: 0 hr 8 min 13 sec) 
Heartbeat CPU  3 instructions:   83000002 cycles:  104837511 heartbeat IPC: 0.23896 cumulative IPC: 0.30537 (Simulation time: 0 hr 8 min 14 sec) 
Heartbeat CPU  0 instructions:   84000000 cycles:  105283844 heartbeat IPC: 0.33739 cumulative IPC: 0.34557 (Simulation time: 0 hr 8 min 15 sec) 
Heartbeat CPU  1 instructions:   79000002 cycles:  105598967 heartbeat IPC: 0.39034 cumulative IPC: 0.34099 (Simulation time: 0 hr 8 min 16 sec) 
Heartbeat CPU  2 instructions:   83000003 cycles:  107206868 heartbeat IPC: 0.38317 cumulative IPC: 0.35478 (Simulation time: 0 hr 8 min 21 sec) 
Heartbeat CPU  3 instructions:   84000000 cycles:  107854207 heartbeat IPC: 0.33149 cumulative IPC: 0.30627 (Simulation time: 0 hr 8 min 23 sec) 
Heartbeat CPU  0 instructions:   85000001 cycles:  108313061 heartbeat IPC: 0.33012 cumulative IPC: 0.34503 (Simulation time: 0 hr 8 min 24 sec) 
Heartbeat CPU  1 instructions:   80000000 cycles:  108366966 heartbeat IPC: 0.36127 cumulative IPC: 0.34163 (Simulation time: 0 hr 8 min 24 sec) 
Heartbeat CPU  2 instructions:   84000000 cycles:  109773036 heartbeat IPC: 0.38968 cumulative IPC: 0.35578 (Simulation time: 0 hr 8 min 28 sec) 
Heartbeat CPU  3 instructions:   85000000 cycles:  110417716 heartbeat IPC: 0.39009 cumulative IPC: 0.30866 (Simulation time: 0 hr 8 min 30 sec) 
Heartbeat CPU  0 instructions:   86000002 cycles:  110902214 heartbeat IPC: 0.38623 cumulative IPC: 0.34621 (Simulation time: 0 hr 8 min 31 sec) 
Heartbeat CPU  1 instructions:   81000002 cycles:  111842207 heartbeat IPC: 0.28775 cumulative IPC: 0.33958 (Simulation time: 0 hr 8 min 33 sec) 
Heartbeat CPU  2 instructions:   85000003 cycles:  112711007 heartbeat IPC: 0.34037 cumulative IPC: 0.35529 (Simulation time: 0 hr 8 min 36 sec) 
Heartbeat CPU  3 instructions:   86000001 cycles:  113161814 heartbeat IPC: 0.36442 cumulative IPC: 0.31031 (Simulation time: 0 hr 8 min 37 sec) 
Heartbeat CPU  0 instructions:   87000000 cycles:  113458550 heartbeat IPC: 0.39118 cumulative IPC: 0.34745 (Simulation time: 0 hr 8 min 38 sec) 
Heartbeat CPU  1 instructions:   82000001 cycles:  114827553 heartbeat IPC: 0.33497 cumulative IPC: 0.33943 (Simulation time: 0 hr 8 min 42 sec) 
Heartbeat CPU  2 instructions:   86000002 cycles:  115282553 heartbeat IPC: 0.38887 cumulative IPC: 0.35620 (Simulation time: 0 hr 8 min 43 sec) 
Heartbeat CPU  3 instructions:   87000000 cycles:  115912537 heartbeat IPC: 0.36354 cumulative IPC: 0.31185 (Simulation time: 0 hr 8 min 45 sec) 
Heartbeat CPU  0 instructions:   88000000 cycles:  116282770 heartbeat IPC: 0.35408 cumulative IPC: 0.34765 (Simulation time: 0 hr 8 min 45 sec) 
Heartbeat CPU  2 instructions:   87000000 cycles:  117804793 heartbeat IPC: 0.39647 cumulative IPC: 0.35725 (Simulation time: 0 hr 8 min 49 sec) 
Heartbeat CPU  3 instructions:   88000000 cycles:  118698198 heartbeat IPC: 0.35898 cumulative IPC: 0.31319 (Simulation time: 0 hr 8 min 51 sec) 
Heartbeat CPU  0 instructions:   89000003 cycles:  118789907 heartbeat IPC: 0.39886 cumulative IPC: 0.34895 (Simulation time: 0 hr 8 min 52 sec) 
Heartbeat CPU  1 instructions:   83000001 cycles:  120061304 heartbeat IPC: 0.19107 cumulative IPC: 0.33163 (Simulation time: 0 hr 8 min 55 sec) 
Heartbeat CPU  2 instructions:   88000000 cycles:  120378550 heartbeat IPC: 0.38854 cumulative IPC: 0.35805 (Simulation time: 0 hr 8 min 56 sec) 
Heartbeat CPU  3 instructions:   89000000 cycles:  121784562 heartbeat IPC: 0.32401 cumulative IPC: 0.31352 (Simulation time: 0 hr 8 min 59 sec) 
Heartbeat CPU  0 instructions:   90000000 cycles:  121964217 heartbeat IPC: 0.31503 cumulative IPC: 0.34789 (Simulation time: 0 hr 9 min 0 sec) 
Heartbeat CPU  1 instructions:   84000000 cycles:  122872958 heartbeat IPC: 0.35566 cumulative IPC: 0.33229 (Simulation time: 0 hr 9 min 2 sec) 
Heartbeat CPU  2 instructions:   89000002 cycles:  122997163 heartbeat IPC: 0.38188 cumulative IPC: 0.35866 (Simulation time: 0 hr 9 min 3 sec) 
Heartbeat CPU  3 instructions:   90000003 cycles:  124760718 heartbeat IPC: 0.33600 cumulative IPC: 0.31416 (Simulation time: 0 hr 9 min 8 sec) 
Heartbeat CPU  0 instructions:   91000001 cycles:  124807782 heartbeat IPC: 0.35167 cumulative IPC: 0.34800 (Simulation time: 0 hr 9 min 8 sec) 
Heartbeat CPU  2 instructions:   90000001 cycles:  125398318 heartbeat IPC: 0.41647 cumulative IPC: 0.35999 (Simulation time: 0 hr 9 min 10 sec) 
Heartbeat CPU  1 instructions:   85000001 cycles:  125572992 heartbeat IPC: 0.37037 cumulative IPC: 0.33327 (Simulation time: 0 hr 9 min 10 sec) 
Heartbeat CPU  3 instructions:   91000001 cycles:  127517788 heartbeat IPC: 0.36270 cumulative IPC: 0.31541 (Simulation time: 0 hr 9 min 15 sec) 
Heartbeat CPU  0 instructions:   92000000 cycles:  127533418 heartbeat IPC: 0.36689 cumulative IPC: 0.34848 (Simulation time: 0 hr 9 min 15 sec) 
Heartbeat CPU  2 instructions:   91000000 cycles:  128889104 heartbeat IPC: 0.28647 cumulative IPC: 0.35762 (Simulation time: 0 hr 9 min 18 sec) 
Heartbeat CPU  0 instructions:   93000002 cycles:  130205444 heartbeat IPC: 0.37425 cumulative IPC: 0.34910 (Simulation time: 0 hr 9 min 21 sec) 
Heartbeat CPU  3 instructions:   92000000 cycles:  130333067 heartbeat IPC: 0.35520 cumulative IPC: 0.31643 (Simulation time: 0 hr 9 min 22 sec) 
Heartbeat CPU  2 instructions:   92000000 cycles:  131629326 heartbeat IPC: 0.36493 cumulative IPC: 0.35780 (Simulation time: 0 hr 9 min 24 sec) 
Heartbeat CPU  1 instructions:   86000000 cycles:  131793365 heartbeat IPC: 0.16076 cumulative IPC: 0.32362 (Simulation time: 0 hr 9 min 25 sec) 
Heartbeat CPU  0 instructions:   94000002 cycles:  133179138 heartbeat IPC: 0.33628 cumulative IPC: 0.34877 (Simulation time: 0 hr 9 min 28 sec) 
Heartbeat CPU  3 instructions:   93000001 cycles:  134040916 heartbeat IPC: 0.26970 cumulative IPC: 0.31490 (Simulation time: 0 hr 9 min 30 sec) 
Heartbeat CPU  2 instructions:   93000001 cycles:  134281633 heartbeat IPC: 0.37703 cumulative IPC: 0.35825 (Simulation time: 0 hr 9 min 31 sec) 
Heartbeat CPU  0 instructions:   95000000 cycles:  135720117 heartbeat IPC: 0.39355 cumulative IPC: 0.34975 (Simulation time: 0 hr 9 min 34 sec) 
Heartbeat CPU  2 instructions:   94000003 cycles:  137162123 heartbeat IPC: 0.34716 cumulative IPC: 0.35797 (Simulation time: 0 hr 9 min 37 sec) 
Heartbeat CPU  3 instructions:   94000001 cycles:  137555222 heartbeat IPC: 0.28455 cumulative IPC: 0.31399 (Simulation time: 0 hr 9 min 38 sec) 
Heartbeat CPU  1 instructions:   87000003 cycles:  138521019 heartbeat IPC: 0.14864 cumulative IPC: 0.31364 (Simulation time: 0 hr 9 min 40 sec) 
Heartbeat CPU  0 instructions:   96000000 cycles:  138571802 heartbeat IPC: 0.35067 cumulative IPC: 0.34978 (Simulation time: 0 hr 9 min 41 sec) 
Heartbeat CPU  2 instructions:   95000002 cycles:  139699572 heartbeat IPC: 0.39410 cumulative IPC: 0.35874 (Simulation time: 0 hr 9 min 43 sec) 
Heartbeat CPU  3 instructions:   95000002 cycles:  140051950 heartbeat IPC: 0.40052 cumulative IPC: 0.31580 (Simulation time: 0 hr 9 min 44 sec) 
Heartbeat CPU  0 instructions:   97000001 cycles:  141247107 heartbeat IPC: 0.37379 cumulative IPC: 0.35031 (Simulation time: 0 hr 9 min 47 sec) 
Heartbeat CPU  2 instructions:   96000000 cycles:  142297153 heartbeat IPC: 0.38497 cumulative IPC: 0.35930 (Simulation time: 0 hr 9 min 50 sec) 
Heartbeat CPU  3 instructions:   96000000 cycles:  142623263 heartbeat IPC: 0.38891 cumulative IPC: 0.31734 (Simulation time: 0 hr 9 min 51 sec) 
Heartbeat CPU  0 instructions:   98000003 cycles:  143662148 heartbeat IPC: 0.41407 cumulative IPC: 0.35156 (Simulation time: 0 hr 9 min 53 sec) 
Heartbeat CPU  2 instructions:   97000003 cycles:  144934974 heartbeat IPC: 0.37910 cumulative IPC: 0.35972 (Simulation time: 0 hr 9 min 56 sec) 
Heartbeat CPU  1 instructions:   88000000 cycles:  145138603 heartbeat IPC: 0.15111 cumulative IPC: 0.30501 (Simulation time: 0 hr 9 min 56 sec) 
Heartbeat CPU  3 instructions:   97000002 cycles:  146007043 heartbeat IPC: 0.29553 cumulative IPC: 0.31675 (Simulation time: 0 hr 9 min 59 sec) 
Heartbeat CPU  0 instructions:   99000000 cycles:  146546796 heartbeat IPC: 0.34666 cumulative IPC: 0.35145 (Simulation time: 0 hr 10 min 0 sec) 
Heartbeat CPU  2 instructions:   98000000 cycles:  147470919 heartbeat IPC: 0.39433 cumulative IPC: 0.36041 (Simulation time: 0 hr 10 min 2 sec) 
Heartbeat CPU  1 instructions:   89000000 cycles:  147964020 heartbeat IPC: 0.35393 cumulative IPC: 0.30609 (Simulation time: 0 hr 10 min 3 sec) 
*** Reached end of trace for Core: 0 Repeating trace: /data3/CASSANDRA/traces/cassandra_phase0_core0.trace.xz
Heartbeat CPU  0 instructions:  100000000 cycles:  149366291 heartbeat IPC: 0.35467 cumulative IPC: 0.35152 (Simulation time: 0 hr 10 min 7 sec) 
Heartbeat CPU  3 instructions:   98000001 cycles:  149857639 heartbeat IPC: 0.25970 cumulative IPC: 0.31505 (Simulation time: 0 hr 10 min 8 sec) 
Heartbeat CPU  2 instructions:   99000000 cycles:  150283740 heartbeat IPC: 0.35551 cumulative IPC: 0.36031 (Simulation time: 0 hr 10 min 9 sec) 
Heartbeat CPU  1 instructions:   90000003 cycles:  151059455 heartbeat IPC: 0.32306 cumulative IPC: 0.30650 (Simulation time: 0 hr 10 min 11 sec) 
Heartbeat CPU  3 instructions:   99000002 cycles:  152474610 heartbeat IPC: 0.38212 cumulative IPC: 0.31638 (Simulation time: 0 hr 10 min 15 sec) 
*** Reached end of trace for Core: 2 Repeating trace: /data3/CASSANDRA/traces/cassandra_phase0_core2.trace.xz
Heartbeat CPU  2 instructions:  100000000 cycles:  153011889 heartbeat IPC: 0.36655 cumulative IPC: 0.36044 (Simulation time: 0 hr 10 min 16 sec) 
Heartbeat CPU  0 instructions:  101000000 cycles:  153602575 heartbeat IPC: 0.23606 cumulative IPC: 0.34784 (Simulation time: 0 hr 10 min 18 sec) 
Heartbeat CPU  1 instructions:   91000002 cycles:  153732180 heartbeat IPC: 0.37415 cumulative IPC: 0.30785 (Simulation time: 0 hr 10 min 18 sec) 
*** Reached end of trace for Core: 3 Repeating trace: /data3/CASSANDRA/traces/cassandra_phase0_core3.trace.xz
Heartbeat CPU  3 instructions:  100000000 cycles:  155134417 heartbeat IPC: 0.37597 cumulative IPC: 0.31756 (Simulation time: 0 hr 10 min 22 sec) 
Heartbeat CPU  2 instructions:  101000003 cycles:  156280013 heartbeat IPC: 0.30599 cumulative IPC: 0.35912 (Simulation time: 0 hr 10 min 25 sec) 
Heartbeat CPU  0 instructions:  102000002 cycles:  156453941 heartbeat IPC: 0.35071 cumulative IPC: 0.34790 (Simulation time: 0 hr 10 min 26 sec) 
Heartbeat CPU  3 instructions:  101000003 cycles:  157651887 heartbeat IPC: 0.39723 cumulative IPC: 0.31902 (Simulation time: 0 hr 10 min 29 sec) 
Heartbeat CPU  1 instructions:   92000000 cycles:  158082293 heartbeat IPC: 0.22988 cumulative IPC: 0.30539 (Simulation time: 0 hr 10 min 30 sec) 
Heartbeat CPU  2 instructions:  102000003 cycles:  158950448 heartbeat IPC: 0.37447 cumulative IPC: 0.35942 (Simulation time: 0 hr 10 min 32 sec) 
Heartbeat CPU  3 instructions:  102000000 cycles:  160201695 heartbeat IPC: 0.39219 cumulative IPC: 0.32036 (Simulation time: 0 hr 10 min 35 sec) 
Heartbeat CPU  0 instructions:  103000003 cycles:  160946134 heartbeat IPC: 0.22261 cumulative IPC: 0.34389 (Simulation time: 0 hr 10 min 37 sec) 
Heartbeat CPU  2 instructions:  103000000 cycles:  161710398 heartbeat IPC: 0.36232 cumulative IPC: 0.35948 (Simulation time: 0 hr 10 min 39 sec) 
Heartbeat CPU  1 instructions:   93000003 cycles:  161761260 heartbeat IPC: 0.27182 cumulative IPC: 0.30451 (Simulation time: 0 hr 10 min 39 sec) 
Heartbeat CPU  3 instructions:  103000000 cycles:  162618420 heartbeat IPC: 0.41378 cumulative IPC: 0.32195 (Simulation time: 0 hr 10 min 41 sec) 
Heartbeat CPU  0 instructions:  104000000 cycles:  163836585 heartbeat IPC: 0.34597 cumulative IPC: 0.34393 (Simulation time: 0 hr 10 min 45 sec) 
Heartbeat CPU  1 instructions:   94000003 cycles:  164742158 heartbeat IPC: 0.33547 cumulative IPC: 0.30515 (Simulation time: 0 hr 10 min 47 sec) 
Heartbeat CPU  3 instructions:  104000000 cycles:  165200114 heartbeat IPC: 0.38734 cumulative IPC: 0.32312 (Simulation time: 0 hr 10 min 48 sec) 
Heartbeat CPU  2 instructions:  104000000 cycles:  166413537 heartbeat IPC: 0.21262 cumulative IPC: 0.35474 (Simulation time: 0 hr 10 min 51 sec) 
Heartbeat CPU  0 instructions:  105000001 cycles:  166810081 heartbeat IPC: 0.33630 cumulative IPC: 0.34378 (Simulation time: 0 hr 10 min 52 sec) 
Heartbeat CPU  1 instructions:   95000000 cycles:  167287144 heartbeat IPC: 0.39293 cumulative IPC: 0.30668 (Simulation time: 0 hr 10 min 53 sec) 
Heartbeat CPU  3 instructions:  105000003 cycles:  167847107 heartbeat IPC: 0.37779 cumulative IPC: 0.32410 (Simulation time: 0 hr 10 min 55 sec) 
Heartbeat CPU  2 instructions:  105000002 cycles:  169144095 heartbeat IPC: 0.36623 cumulative IPC: 0.35495 (Simulation time: 0 hr 10 min 59 sec) 
Heartbeat CPU  0 instructions:  106000001 cycles:  169506287 heartbeat IPC: 0.37089 cumulative IPC: 0.34427 (Simulation time: 0 hr 11 min 0 sec) 
Heartbeat CPU  1 instructions:   96000000 cycles:  169959119 heartbeat IPC: 0.37426 cumulative IPC: 0.30788 (Simulation time: 0 hr 11 min 1 sec) 
Heartbeat CPU  3 instructions:  106000002 cycles:  170833706 heartbeat IPC: 0.33483 cumulative IPC: 0.32431 (Simulation time: 0 hr 11 min 3 sec) 
Heartbeat CPU  2 instructions:  106000002 cycles:  171869685 heartbeat IPC: 0.36689 cumulative IPC: 0.35517 (Simulation time: 0 hr 11 min 6 sec) 
Heartbeat CPU  0 instructions:  107000001 cycles:  172207778 heartbeat IPC: 0.37017 cumulative IPC: 0.34473 (Simulation time: 0 hr 11 min 7 sec) 
Heartbeat CPU  1 instructions:   97000003 cycles:  172703315 heartbeat IPC: 0.36441 cumulative IPC: 0.30890 (Simulation time: 0 hr 11 min 8 sec) 
Heartbeat CPU  3 instructions:  107000000 cycles:  173431946 heartbeat IPC: 0.38488 cumulative IPC: 0.32534 (Simulation time: 0 hr 11 min 10 sec) 
Heartbeat CPU  2 instructions:  107000000 cycles:  174514323 heartbeat IPC: 0.37812 cumulative IPC: 0.35556 (Simulation time: 0 hr 11 min 13 sec) 
Heartbeat CPU  0 instructions:  108000000 cycles:  174768475 heartbeat IPC: 0.39052 cumulative IPC: 0.34549 (Simulation time: 0 hr 11 min 14 sec) 
Heartbeat CPU  1 instructions:   98000001 cycles:  175435813 heartbeat IPC: 0.36596 cumulative IPC: 0.30991 (Simulation time: 0 hr 11 min 16 sec) 
Heartbeat CPU  3 instructions:  108000000 cycles:  175905039 heartbeat IPC: 0.40435 cumulative IPC: 0.32660 (Simulation time: 0 hr 11 min 17 sec) 
Heartbeat CPU  0 instructions:  109000002 cycles:  177465614 heartbeat IPC: 0.37076 cumulative IPC: 0.34593 (Simulation time: 0 hr 11 min 21 sec) 
Heartbeat CPU  2 instructions:  108000000 cycles:  177988627 heartbeat IPC: 0.28783 cumulative IPC: 0.35407 (Simulation time: 0 hr 11 min 23 sec) 
Heartbeat CPU  1 instructions:   99000003 cycles:  178077218 heartbeat IPC: 0.37859 cumulative IPC: 0.31106 (Simulation time: 0 hr 11 min 23 sec) 
Heartbeat CPU  3 instructions:  109000002 cycles:  178287716 heartbeat IPC: 0.41970 cumulative IPC: 0.32800 (Simulation time: 0 hr 11 min 23 sec) 
Heartbeat CPU  0 instructions:  110000000 cycles:  180643860 heartbeat IPC: 0.31464 cumulative IPC: 0.34531 (Simulation time: 0 hr 11 min 29 sec) 
Heartbeat CPU  2 instructions:  109000000 cycles:  180766591 heartbeat IPC: 0.35998 cumulative IPC: 0.35417 (Simulation time: 0 hr 11 min 30 sec) 
Heartbeat CPU  3 instructions:  110000003 cycles:  180973489 heartbeat IPC: 0.37233 cumulative IPC: 0.32875 (Simulation time: 0 hr 11 min 30 sec) 
*** Reached end of trace for Core: 1 Repeating trace: /data3/CASSANDRA/traces/cassandra_phase0_core1.trace.xz
Heartbeat CPU  1 instructions:  100000000 cycles:  181048882 heartbeat IPC: 0.33651 cumulative IPC: 0.31153 (Simulation time: 0 hr 11 min 31 sec) 
Heartbeat CPU  2 instructions:  110000000 cycles:  183820078 heartbeat IPC: 0.32749 cumulative IPC: 0.35367 (Simulation time: 0 hr 11 min 38 sec) 
Heartbeat CPU  3 instructions:  111000000 cycles:  183827467 heartbeat IPC: 0.35039 cumulative IPC: 0.32913 (Simulation time: 0 hr 11 min 38 sec) 
Heartbeat CPU  0 instructions:  111000002 cycles:  184059582 heartbeat IPC: 0.29276 cumulative IPC: 0.34421 (Simulation time: 0 hr 11 min 38 sec) 
Heartbeat CPU  1 instructions:  101000001 cycles:  184746523 heartbeat IPC: 0.27044 cumulative IPC: 0.31061 (Simulation time: 0 hr 11 min 40 sec) 
Heartbeat CPU  3 instructions:  112000000 cycles:  186682057 heartbeat IPC: 0.35031 cumulative IPC: 0.32949 (Simulation time: 0 hr 11 min 45 sec) 
Heartbeat CPU  0 instructions:  112000000 cycles:  186781344 heartbeat IPC: 0.36741 cumulative IPC: 0.34459 (Simulation time: 0 hr 11 min 45 sec) 
Heartbeat CPU  2 instructions:  111000000 cycles:  187423225 heartbeat IPC: 0.27754 cumulative IPC: 0.35203 (Simulation time: 0 hr 11 min 46 sec) 
Heartbeat CPU  1 instructions:  102000001 cycles:  189550464 heartbeat IPC: 0.20816 cumulative IPC: 0.30770 (Simulation time: 0 hr 11 min 52 sec) 
Heartbeat CPU  0 instructions:  113000002 cycles:  189566486 heartbeat IPC: 0.35905 cumulative IPC: 0.34483 (Simulation time: 0 hr 11 min 52 sec) 
Heartbeat CPU  3 instructions:  113000000 cycles:  189589940 heartbeat IPC: 0.34389 cumulative IPC: 0.32974 (Simulation time: 0 hr 11 min 52 sec) 
Heartbeat CPU  2 instructions:  112000000 cycles:  190322392 heartbeat IPC: 0.34493 cumulative IPC: 0.35191 (Simulation time: 0 hr 11 min 54 sec) 
Heartbeat CPU  1 instructions:  103000003 cycles:  192352396 heartbeat IPC: 0.35690 cumulative IPC: 0.30850 (Simulation time: 0 hr 11 min 59 sec) 
Heartbeat CPU  3 instructions:  114000001 cycles:  192485253 heartbeat IPC: 0.34539 cumulative IPC: 0.33000 (Simulation time: 0 hr 12 min 0 sec) 
Heartbeat CPU  0 instructions:  114000002 cycles:  192546985 heartbeat IPC: 0.33551 cumulative IPC: 0.34466 (Simulation time: 0 hr 12 min 0 sec) 
Heartbeat CPU  2 instructions:  113000003 cycles:  192997411 heartbeat IPC: 0.37383 cumulative IPC: 0.35225 (Simulation time: 0 hr 12 min 1 sec) 
Heartbeat CPU  3 instructions:  115000002 cycles:  194995043 heartbeat IPC: 0.39844 cumulative IPC: 0.33099 (Simulation time: 0 hr 12 min 6 sec) 
Heartbeat CPU  1 instructions:  104000000 cycles:  195184686 heartbeat IPC: 0.35307 cumulative IPC: 0.30922 (Simulation time: 0 hr 12 min 7 sec) 
Heartbeat CPU  0 instructions:  115000001 cycles:  195368531 heartbeat IPC: 0.35442 cumulative IPC: 0.34482 (Simulation time: 0 hr 12 min 7 sec) 
Heartbeat CPU  2 instructions:  114000000 cycles:  195806932 heartbeat IPC: 0.35593 cumulative IPC: 0.35230 (Simulation time: 0 hr 12 min 9 sec) 
Heartbeat CPU  3 instructions:  116000000 cycles:  197474068 heartbeat IPC: 0.40338 cumulative IPC: 0.33200 (Simulation time: 0 hr 12 min 13 sec) 
Heartbeat CPU  1 instructions:  105000000 cycles:  197924123 heartbeat IPC: 0.36504 cumulative IPC: 0.31008 (Simulation time: 0 hr 12 min 14 sec) 
Heartbeat CPU  0 instructions:  116000000 cycles:  198163957 heartbeat IPC: 0.35773 cumulative IPC: 0.34502 (Simulation time: 0 hr 12 min 15 sec) 
Heartbeat CPU  2 instructions:  115000002 cycles:  198485701 heartbeat IPC: 0.37331 cumulative IPC: 0.35262 (Simulation time: 0 hr 12 min 16 sec) 
Heartbeat CPU  3 instructions:  117000000 cycles:  200383404 heartbeat IPC: 0.34372 cumulative IPC: 0.33219 (Simulation time: 0 hr 12 min 21 sec) 
Heartbeat CPU  1 instructions:  106000000 cycles:  200717657 heartbeat IPC: 0.35797 cumulative IPC: 0.31083 (Simulation time: 0 hr 12 min 22 sec) 
Heartbeat CPU  0 instructions:  117000001 cycles:  201157467 heartbeat IPC: 0.33406 cumulative IPC: 0.34484 (Simulation time: 0 hr 12 min 23 sec) 
Heartbeat CPU  2 instructions:  116000000 cycles:  201465157 heartbeat IPC: 0.33563 cumulative IPC: 0.35234 (Simulation time: 0 hr 12 min 24 sec) 
Heartbeat CPU  3 instructions:  118000000 cycles:  202820025 heartbeat IPC: 0.41040 cumulative IPC: 0.33324 (Simulation time: 0 hr 12 min 27 sec) 
Heartbeat CPU  0 instructions:  118000003 cycles:  204005285 heartbeat IPC: 0.35115 cumulative IPC: 0.34494 (Simulation time: 0 hr 12 min 30 sec) 
Heartbeat CPU  1 instructions:  107000002 cycles:  204311742 heartbeat IPC: 0.27824 cumulative IPC: 0.31019 (Simulation time: 0 hr 12 min 31 sec) 
Heartbeat CPU  2 instructions:  117000003 cycles:  204942063 heartbeat IPC: 0.28761 cumulative IPC: 0.35112 (Simulation time: 0 hr 12 min 33 sec) 
Heartbeat CPU  3 instructions:  119000003 cycles:  206069746 heartbeat IPC: 0.30772 cumulative IPC: 0.33279 (Simulation time: 0 hr 12 min 35 sec) 
Heartbeat CPU  0 instructions:  119000000 cycles:  206628287 heartbeat IPC: 0.38124 cumulative IPC: 0.34545 (Simulation time: 0 hr 12 min 37 sec) 
Heartbeat CPU  2 instructions:  118000003 cycles:  207429949 heartbeat IPC: 0.40195 cumulative IPC: 0.35180 (Simulation time: 0 hr 12 min 40 sec) 
Heartbeat CPU  1 instructions:  108000000 cycles:  207770386 heartbeat IPC: 0.28913 cumulative IPC: 0.30980 (Simulation time: 0 hr 12 min 41 sec) 
Heartbeat CPU  3 instructions:  120000000 cycles:  208546444 heartbeat IPC: 0.40376 cumulative IPC: 0.33372 (Simulation time: 0 hr 12 min 43 sec) 
Heartbeat CPU  0 instructions:  120000000 cycles:  209361367 heartbeat IPC: 0.36589 cumulative IPC: 0.34575 (Simulation time: 0 hr 12 min 45 sec) 
Heartbeat CPU  2 instructions:  119000003 cycles:  210077803 heartbeat IPC: 0.37766 cumulative IPC: 0.35216 (Simulation time: 0 hr 12 min 47 sec) 
Heartbeat CPU  1 instructions:  109000000 cycles:  210760200 heartbeat IPC: 0.33447 cumulative IPC: 0.31019 (Simulation time: 0 hr 12 min 49 sec) 
Heartbeat CPU  3 instructions:  121000003 cycles:  211258419 heartbeat IPC: 0.36874 cumulative IPC: 0.33422 (Simulation time: 0 hr 12 min 50 sec) 
Heartbeat CPU  0 instructions:  121000003 cycles:  212050383 heartbeat IPC: 0.37188 cumulative IPC: 0.34612 (Simulation time: 0 hr 12 min 52 sec) 
Heartbeat CPU  2 instructions:  120000000 cycles:  213228931 heartbeat IPC: 0.31735 cumulative IPC: 0.35159 (Simulation time: 0 hr 12 min 55 sec) 
Heartbeat CPU  1 instructions:  110000002 cycles:  213501622 heartbeat IPC: 0.36477 cumulative IPC: 0.31096 (Simulation time: 0 hr 12 min 56 sec) 
Heartbeat CPU  3 instructions:  122000003 cycles:  214080812 heartbeat IPC: 0.35431 cumulative IPC: 0.33451 (Simulation time: 0 hr 12 min 57 sec) 
Heartbeat CPU  0 instructions:  122000000 cycles:  214739350 heartbeat IPC: 0.37189 cumulative IPC: 0.34647 (Simulation time: 0 hr 12 min 59 sec) 
Heartbeat CPU  2 instructions:  121000002 cycles:  215932889 heartbeat IPC: 0.36983 cumulative IPC: 0.35184 (Simulation time: 0 hr 13 min 2 sec) 
Heartbeat CPU  1 instructions:  111000003 cycles:  216566624 heartbeat IPC: 0.32626 cumulative IPC: 0.31120 (Simulation time: 0 hr 13 min 4 sec) 
Heartbeat CPU  3 instructions:  123000001 cycles:  216685655 heartbeat IPC: 0.38390 cumulative IPC: 0.33517 (Simulation time: 0 hr 13 min 4 sec) 
Heartbeat CPU  0 instructions:  123000001 cycles:  217673559 heartbeat IPC: 0.34081 cumulative IPC: 0.34639 (Simulation time: 0 hr 13 min 7 sec) 
Heartbeat CPU  2 instructions:  122000001 cycles:  218517327 heartbeat IPC: 0.38693 cumulative IPC: 0.35230 (Simulation time: 0 hr 13 min 9 sec) 
Heartbeat CPU  1 instructions:  112000000 cycles:  219269890 heartbeat IPC: 0.36992 cumulative IPC: 0.31200 (Simulation time: 0 hr 13 min 11 sec) 
Heartbeat CPU  3 instructions:  124000000 cycles:  219735000 heartbeat IPC: 0.32794 cumulative IPC: 0.33506 (Simulation time: 0 hr 13 min 12 sec) 
Heartbeat CPU  0 instructions:  124000000 cycles:  220924224 heartbeat IPC: 0.30763 cumulative IPC: 0.34576 (Simulation time: 0 hr 13 min 16 sec) 
Heartbeat CPU  2 instructions:  123000001 cycles:  221208311 heartbeat IPC: 0.37161 cumulative IPC: 0.35256 (Simulation time: 0 hr 13 min 16 sec) 
Heartbeat CPU  1 instructions:  113000003 cycles:  222008079 heartbeat IPC: 0.36521 cumulative IPC: 0.31272 (Simulation time: 0 hr 13 min 19 sec) 
Heartbeat CPU  3 instructions:  125000000 cycles:  222760387 heartbeat IPC: 0.33054 cumulative IPC: 0.33499 (Simulation time: 0 hr 13 min 21 sec) 
Heartbeat CPU  0 instructions:  125000000 cycles:  223688843 heartbeat IPC: 0.36171 cumulative IPC: 0.34598 (Simulation time: 0 hr 13 min 23 sec) 
Heartbeat CPU  2 instructions:  124000000 cycles:  223968392 heartbeat IPC: 0.36231 cumulative IPC: 0.35269 (Simulation time: 0 hr 13 min 24 sec) 
Heartbeat CPU  1 instructions:  114000001 cycles:  224879275 heartbeat IPC: 0.34829 cumulative IPC: 0.31322 (Simulation time: 0 hr 13 min 26 sec) 
Heartbeat CPU  3 instructions:  126000000 cycles:  225250641 heartbeat IPC: 0.40157 cumulative IPC: 0.33580 (Simulation time: 0 hr 13 min 27 sec) 
Heartbeat CPU  0 instructions:  126000001 cycles:  226447912 heartbeat IPC: 0.36244 cumulative IPC: 0.34620 (Simulation time: 0 hr 13 min 31 sec) 
Heartbeat CPU  2 instructions:  125000001 cycles:  226678851 heartbeat IPC: 0.36894 cumulative IPC: 0.35290 (Simulation time: 0 hr 13 min 31 sec) 
Heartbeat CPU  1 instructions:  115000000 cycles:  227574002 heartbeat IPC: 0.37109 cumulative IPC: 0.31398 (Simulation time: 0 hr 13 min 34 sec) 
Heartbeat CPU  3 instructions:  127000000 cycles:  227755691 heartbeat IPC: 0.39919 cumulative IPC: 0.33657 (Simulation time: 0 hr 13 min 34 sec) 
Heartbeat CPU  0 instructions:  127000001 cycles:  229187046 heartbeat IPC: 0.36508 cumulative IPC: 0.34644 (Simulation time: 0 hr 13 min 38 sec) 
Heartbeat CPU  2 instructions:  126000003 cycles:  229356171 heartbeat IPC: 0.37351 cumulative IPC: 0.35317 (Simulation time: 0 hr 13 min 38 sec) 
Heartbeat CPU  1 instructions:  116000000 cycles:  230286157 heartbeat IPC: 0.36871 cumulative IPC: 0.31468 (Simulation time: 0 hr 13 min 41 sec) 
Heartbeat CPU  3 instructions:  128000000 cycles:  230355077 heartbeat IPC: 0.38471 cumulative IPC: 0.33716 (Simulation time: 0 hr 13 min 41 sec) 
Heartbeat CPU  0 instructions:  128000000 cycles:  231791783 heartbeat IPC: 0.38392 cumulative IPC: 0.34691 (Simulation time: 0 hr 13 min 45 sec) 
Heartbeat CPU  2 instructions:  127000000 cycles:  232573319 heartbeat IPC: 0.31083 cumulative IPC: 0.35253 (Simulation time: 0 hr 13 min 47 sec) 
Heartbeat CPU  3 instructions:  129000003 cycles:  232906041 heartbeat IPC: 0.39201 cumulative IPC: 0.33782 (Simulation time: 0 hr 13 min 48 sec) 
Heartbeat CPU  1 instructions:  117000000 cycles:  233192661 heartbeat IPC: 0.34406 cumulative IPC: 0.31509 (Simulation time: 0 hr 13 min 49 sec) 
Heartbeat CPU  0 instructions:  129000003 cycles:  234508296 heartbeat IPC: 0.36812 cumulative IPC: 0.34718 (Simulation time: 0 hr 13 min 52 sec) 
Heartbeat CPU  3 instructions:  130000002 cycles:  236116225 heartbeat IPC: 0.31151 cumulative IPC: 0.33743 (Simulation time: 0 hr 13 min 55 sec) 
Heartbeat CPU  1 instructions:  118000001 cycles:  236999881 heartbeat IPC: 0.26266 cumulative IPC: 0.31416 (Simulation time: 0 hr 13 min 58 sec) 
Heartbeat CPU  2 instructions:  128000000 cycles:  237030613 heartbeat IPC: 0.22435 cumulative IPC: 0.34989 (Simulation time: 0 hr 13 min 58 sec) 
Heartbeat CPU  0 instructions:  130000001 cycles:  237267127 heartbeat IPC: 0.36247 cumulative IPC: 0.34737 (Simulation time: 0 hr 13 min 59 sec) 
Heartbeat CPU  3 instructions:  131000001 cycles:  238664453 heartbeat IPC: 0.39243 cumulative IPC: 0.33807 (Simulation time: 0 hr 14 min 2 sec) 
Heartbeat CPU  1 instructions:  119000001 cycles:  240053241 heartbeat IPC: 0.32751 cumulative IPC: 0.31435 (Simulation time: 0 hr 14 min 6 sec) 
Heartbeat CPU  2 instructions:  129000001 cycles:  240063391 heartbeat IPC: 0.32973 cumulative IPC: 0.34961 (Simulation time: 0 hr 14 min 6 sec) 
Heartbeat CPU  0 instructions:  131000003 cycles:  240311871 heartbeat IPC: 0.32844 cumulative IPC: 0.34711 (Simulation time: 0 hr 14 min 7 sec) 
Heartbeat CPU  3 instructions:  132000000 cycles:  241623382 heartbeat IPC: 0.33796 cumulative IPC: 0.33807 (Simulation time: 0 hr 14 min 10 sec) 
Heartbeat CPU  2 instructions:  130000001 cycles:  242764179 heartbeat IPC: 0.37026 cumulative IPC: 0.34986 (Simulation time: 0 hr 14 min 13 sec) 
Heartbeat CPU  1 instructions:  120000000 cycles:  243021269 heartbeat IPC: 0.33692 cumulative IPC: 0.31465 (Simulation time: 0 hr 14 min 14 sec) 
Heartbeat CPU  0 instructions:  132000000 cycles:  243179109 heartbeat IPC: 0.34877 cumulative IPC: 0.34713 (Simulation time: 0 hr 14 min 14 sec) 
Heartbeat CPU  3 instructions:  133000003 cycles:  244533066 heartbeat IPC: 0.34368 cumulative IPC: 0.33815 (Simulation time: 0 hr 14 min 18 sec) 
Heartbeat CPU  2 instructions:  131000001 cycles:  245738941 heartbeat IPC: 0.33616 cumulative IPC: 0.34968 (Simulation time: 0 hr 14 min 21 sec) 
Heartbeat CPU  1 instructions:  121000002 cycles:  245755123 heartbeat IPC: 0.36578 cumulative IPC: 0.31527 (Simulation time: 0 hr 14 min 21 sec) 
Heartbeat CPU  0 instructions:  133000001 cycles:  245756203 heartbeat IPC: 0.38803 cumulative IPC: 0.34760 (Simulation time: 0 hr 14 min 21 sec) 
Heartbeat CPU  3 instructions:  134000000 cycles:  247764398 heartbeat IPC: 0.30947 cumulative IPC: 0.33774 (Simulation time: 0 hr 14 min 26 sec) 
Heartbeat CPU  0 instructions:  134000000 cycles:  249171875 heartbeat IPC: 0.29277 cumulative IPC: 0.34678 (Simulation time: 0 hr 14 min 29 sec) 
Heartbeat CPU  2 instructions:  132000000 cycles:  249419008 heartbeat IPC: 0.27173 cumulative IPC: 0.34843 (Simulation time: 0 hr 14 min 30 sec) 
Heartbeat CPU  1 instructions:  122000001 cycles:  250295327 heartbeat IPC: 0.22025 cumulative IPC: 0.31339 (Simulation time: 0 hr 14 min 32 sec) 
Heartbeat CPU  3 instructions:  135000003 cycles:  250604481 heartbeat IPC: 0.35210 cumulative IPC: 0.33791 (Simulation time: 0 hr 14 min 32 sec) 
Heartbeat CPU  0 instructions:  135000000 cycles:  251987675 heartbeat IPC: 0.35514 cumulative IPC: 0.34688 (Simulation time: 0 hr 14 min 36 sec) 
[...]
Core_0_L1I_acc_level_4 0
Core_0_L1I_acc_level_5 0
Core_0_L1I_acc_level_6 0
Core_0_L1I_acc_level_7 0
Core_0_L1I_acc_level_8 0
Core_0_L1I_acc_level_9 0

Core_0_L2C_total_access 2133165
Core_0_L2C_total_hit 659532
Core_0_L2C_total_miss 1473633
Core_0_L2C_loads 1590145
Core_0_L2C_load_hit 245037
Core_0_L2C_load_miss 1345108
Core_0_L2C_RFOs 154385
Core_0_L2C_RFO_hit 27752
Core_0_L2C_RFO_miss 126633
Core_0_L2C_prefetches 0
Core_0_L2C_prefetch_hit 0
Core_0_L2C_prefetch_miss 0
Core_0_L2C_writebacks 388635
Core_0_L2C_writeback_hit 386743
Core_0_L2C_writeback_miss 1892
Core_0_L2C_prefetch_requested 0
Core_0_L2C_prefetch_dropped 0
Core_0_L2C_prefetch_issued 0
Core_0_L2C_prefetch_filled 0
Core_0_L2C_prefetch_useful 0
Core_0_L2C_prefetch_useless 0
Core_0_L2C_prefetch_late 0
Core_0_L2C_average_miss_latency 182.32837

Core_0_L2C_rq_access 1895553
Core_0_L2C_rq_forward 0
Core_0_L2C_rq_merged 0
Core_0_L2C_rq_to_cache 1895531
Core_0_L2C_rq_full 0

Core_0_L2C_wq_access 419223
Core_0_L2C_wq_forward 22
Core_0_L2C_wq_merged 0
Core_0_L2C_wq_to_cache 419223
Core_0_L2C_wq_full 0

Core_0_L2C_pq_access 0
Core_0_L2C_pq_forward 0
Core_0_L2C_pq_merged 0
Core_0_L2C_pq_to_cache 0
Core_0_L2C_pq_full 0

Core_0_L2C_acc_epochs 230450
Core_0_L2C_acc_level_0 230450
Core_0_L2C_acc_level_1 0
Core_0_L2C_acc_level_2 0
Core_0_L2C_acc_level_3 0
Core_0_L2C_acc_level_4 0
Core_0_L2C_acc_level_5 0
Core_0_L2C_acc_level_6 0
Core_0_L2C_acc_level_7 0
Core_0_L2C_acc_level_8 0
Core_0_L2C_acc_level_9 0

Core_0_LLC_total_access 1819457
Core_0_LLC_total_hit 764287
Core_0_LLC_total_miss 1055170
Core_0_LLC_loads 1345108
Core_0_LLC_load_hit 522709
Core_0_LLC_load_miss 822399
Core_0_LLC_RFOs 126632
Core_0_LLC_RFO_hit 45477
Core_0_LLC_RFO_miss 81155
Core_0_LLC_prefetches 0
Core_0_LLC_prefetch_hit 0
Core_0_LLC_prefetch_miss 0
Core_0_LLC_writebacks 347717
Core_0_LLC_writeback_hit 196101
Core_0_LLC_writeback_miss 151616
Core_0_LLC_prefetch_requested 0
Core_0_LLC_prefetch_dropped 0
Core_0_LLC_prefetch_issued 0
Core_0_LLC_prefetch_filled 0
Core_0_LLC_prefetch_useful 0
Core_0_LLC_prefetch_useless 0
Core_0_LLC_prefetch_late 0
Core_0_LLC_average_miss_latency 715.05791

Core_0_LLC_rq_access 6632897
Core_0_LLC_rq_forward 0
Core_0_LLC_rq_merged 0
Core_0_LLC_rq_to_cache 6632880
Core_0_LLC_rq_full 0

Core_0_LLC_wq_access 1514468
Core_0_LLC_wq_forward 17
Core_0_LLC_wq_merged 0
Core_0_LLC_wq_to_cache 1514468
Core_0_LLC_wq_full 0

Core_0_LLC_pq_access 0
Core_0_LLC_pq_forward 0
Core_0_LLC_pq_merged 0
Core_0_LLC_pq_to_cache 0
Core_0_LLC_pq_full 0

Core_0_LLC_acc_epochs 486801
Core_0_LLC_acc_level_0 486801
Core_0_LLC_acc_level_1 0
Core_0_LLC_acc_level_2 0
Core_0_LLC_acc_level_3 0
Core_0_LLC_acc_level_4 0
Core_0_LLC_acc_level_5 0
Core_0_LLC_acc_level_6 0
Core_0_LLC_acc_level_7 0
Core_0_LLC_acc_level_8 0
Core_0_LLC_acc_level_9 0

Core_0_major_page_fault 0
Core_0_minor_page_fault 42336

Core_1_instructions 150000001
Core_1_cycles 477931560
Core_1_IPC 0.31385

Core_1_branch_prediction_accuracy 96.39335
Core_1_branch_MPKI 4.59880
Core_1_average_ROB_occupancy_at_mispredict 74.13576

Core_1_L1D_total_access 15129602
Core_1_L1D_total_hit 13549559
Core_1_L1D_total_miss 1580043
Core_1_L1D_loads 9892318
Core_1_L1D_load_hit 8502365
Core_1_L1D_load_miss 1389953
Core_1_L1D_RFOs 5237284
Core_1_L1D_RFO_hit 5047194
Core_1_L1D_RFO_miss 190090
Core_1_L1D_prefetches 0
Core_1_L1D_prefetch_hit 0
Core_1_L1D_prefetch_miss 0
Core_1_L1D_writebacks 0
Core_1_L1D_writeback_hit 0
Core_1_L1D_writeback_miss 0
Core_1_L1D_prefetch_requested 0
Core_1_L1D_prefetch_dropped 0
Core_1_L1D_prefetch_issued 0
Core_1_L1D_prefetch_filled 0
Core_1_L1D_prefetch_useful 0
Core_1_L1D_prefetch_useless 0
Core_1_L1D_prefetch_late 0
Core_1_L1D_average_miss_latency 184.38316

Core_1_L1D_rq_access 17864833
Core_1_L1D_rq_forward 0
Core_1_L1D_rq_merged 7464719
Core_1_L1D_rq_to_cache 10399796
Core_1_L1D_rq_full 0

Core_1_L1D_wq_access 5892331
Core_1_L1D_wq_forward 318
Core_1_L1D_wq_merged 118981
Core_1_L1D_wq_to_cache 5773350
Core_1_L1D_wq_full 0

Core_1_L1D_pq_access 0
Core_1_L1D_pq_forward 0
Core_1_L1D_pq_merged 0
Core_1_L1D_pq_to_cache 0
Core_1_L1D_pq_full 0

Core_1_L1D_acc_epochs 232914
Core_1_L1D_acc_level_0 232914
Core_1_L1D_acc_level_1 0
Core_1_L1D_acc_level_2 0
Core_1_L1D_acc_level_3 0
Core_1_L1D_acc_level_4 0
Core_1_L1D_acc_level_5 0
Core_1_L1D_acc_level_6 0
Core_1_L1D_acc_level_7 0
Core_1_L1D_acc_level_8 0
Core_1_L1D_acc_level_9 0

Core_1_L1I_total_access 29873161
Core_1_L1I_total_hit 28986112
Core_1_L1I_total_miss 887049
Core_1_L1I_loads 29873161
Core_1_L1I_load_hit 28986112
Core_1_L1I_load_miss 887049
Core_1_L1I_RFOs 0
Core_1_L1I_RFO_hit 0
Core_1_L1I_RFO_miss 0
Core_1_L1I_prefetches 0
Core_1_L1I_prefetch_hit 0
Core_1_L1I_prefetch_miss 0
Core_1_L1I_writebacks 0
Core_1_L1I_writeback_hit 0
Core_1_L1I_writeback_miss 0
Core_1_L1I_prefetch_requested 0
Core_1_L1I_prefetch_dropped 0
Core_1_L1I_prefetch_issued 0
Core_1_L1I_prefetch_filled 0
Core_1_L1I_prefetch_useful 0
Core_1_L1I_prefetch_useless 0
Core_1_L1I_prefetch_late 0
Core_1_L1I_average_miss_latency 73.08406

Core_1_L1I_rq_access 149999788
Core_1_L1I_rq_forward 0
Core_1_L1I_rq_merged 119627552
Core_1_L1I_rq_to_cache 30372236
Core_1_L1I_rq_full 0

Core_1_L1I_wq_access 0
Core_1_L1I_wq_forward 0
Core_1_L1I_wq_merged 0
Core_1_L1I_wq_to_cache 0
Core_1_L1I_wq_full 0

Core_1_L1I_pq_access 0
Core_1_L1I_pq_forward 0
Core_1_L1I_pq_merged 0
Core_1_L1I_pq_to_cache 0
Core_1_L1I_pq_full 0

Core_1_L1I_acc_epochs 232914
Core_1_L1I_acc_level_0 232914
Core_1_L1I_acc_level_1 0
Core_1_L1I_acc_level_2 0
Core_1_L1I_acc_level_3 0
Core_1_L1I_acc_level_4 0
Core_1_L1I_acc_level_5 0
Core_1_L1I_acc_level_6 0
Core_1_L1I_acc_level_7 0
Core_1_L1I_acc_level_8 0
Core_1_L1I_acc_level_9 0

Core_1_L2C_total_access 2942788
Core_1_L2C_total_hit 1222066
Core_1_L2C_total_miss 1720722
Core_1_L2C_loads 2276996
Core_1_L2C_load_hit 698752
Core_1_L2C_load_miss 1578244
Core_1_L2C_RFOs 190058
Core_1_L2C_RFO_hit 51490
Core_1_L2C_RFO_miss 138568
Core_1_L2C_prefetches 0
Core_1_L2C_prefetch_hit 0
Core_1_L2C_prefetch_miss 0
Core_1_L2C_writebacks 475734
Core_1_L2C_writeback_hit 471824
Core_1_L2C_writeback_miss 3910
Core_1_L2C_prefetch_requested 0
Core_1_L2C_prefetch_dropped 0
Core_1_L2C_prefetch_issued 0
Core_1_L2C_prefetch_filled 0
Core_1_L2C_prefetch_useful 0
Core_1_L2C_prefetch_useless 0
Core_1_L2C_prefetch_late 0
Core_1_L2C_average_miss_latency 154.27969

Core_1_L2C_rq_access 2467092
Core_1_L2C_rq_forward 0
Core_1_L2C_rq_merged 0
Core_1_L2C_rq_to_cache 2467054
Core_1_L2C_rq_full 0

Core_1_L2C_wq_access 475734
Core_1_L2C_wq_forward 38
Core_1_L2C_wq_merged 0
Core_1_L2C_wq_to_cache 475734
Core_1_L2C_wq_full 0

Core_1_L2C_pq_access 0
Core_1_L2C_pq_forward 0
Core_1_L2C_pq_merged 0
Core_1_L2C_pq_to_cache 0
Core_1_L2C_pq_full 0

Core_1_L2C_acc_epochs 232914
Core_1_L2C_acc_level_0 232914
Core_1_L2C_acc_level_1 0
Core_1_L2C_acc_level_2 0
Core_1_L2C_acc_level_3 0
Core_1_L2C_acc_level_4 0
Core_1_L2C_acc_level_5 0
Core_1_L2C_acc_level_6 0
Core_1_L2C_acc_level_7 0
Core_1_L2C_acc_level_8 0
Core_1_L2C_acc_level_9 0

Core_1_LLC_total_access 2102612
Core_1_LLC_total_hit 1011662
Core_1_LLC_total_miss 1090950
Core_1_LLC_loads 1578240
Core_1_LLC_load_hit 712530
Core_1_LLC_load_miss 865710
Core_1_LLC_RFOs 138560
Core_1_LLC_RFO_hit 59951
Core_1_LLC_RFO_miss 78609
Core_1_LLC_prefetches 0
Core_1_LLC_prefetch_hit 0
Core_1_LLC_prefetch_miss 0
Core_1_LLC_writebacks 385812
Core_1_LLC_writeback_hit 239181
Core_1_LLC_writeback_miss 146631
Core_1_LLC_prefetch_requested 0
Core_1_LLC_prefetch_dropped 0
Core_1_LLC_prefetch_issued 0
Core_1_LLC_prefetch_filled 0
Core_1_LLC_prefetch_useful 0
Core_1_LLC_prefetch_useless 0
Core_1_LLC_prefetch_late 0
Core_1_LLC_average_miss_latency 691.60608

Core_1_LLC_rq_access 6632897
Core_1_LLC_rq_forward 0
Core_1_LLC_rq_merged 0
Core_1_LLC_rq_to_cache 6632880
Core_1_LLC_rq_full 0

Core_1_LLC_wq_access 1514468
Core_1_LLC_wq_forward 17
Core_1_LLC_wq_merged 0
Core_1_LLC_wq_to_cache 1514468
Core_1_LLC_wq_full 0

Core_1_LLC_pq_access 0
Core_1_LLC_pq_forward 0
Core_1_LLC_pq_merged 0
Core_1_LLC_pq_to_cache 0
Core_1_LLC_pq_full 0

Core_1_LLC_acc_epochs 486801
Core_1_LLC_acc_level_0 486801
Core_1_LLC_acc_level_1 0
Core_1_LLC_acc_level_2 0
Core_1_LLC_acc_level_3 0
Core_1_LLC_acc_level_4 0
Core_1_LLC_acc_level_5 0
Core_1_LLC_acc_level_6 0
Core_1_LLC_acc_level_7 0
Core_1_LLC_acc_level_8 0
Core_1_LLC_acc_level_9 0

Core_1_major_page_fault 0
Core_1_minor_page_fault 44990

Core_2_instructions 150000002
Core_2_cycles 428845782
Core_2_IPC 0.34978

Core_2_branch_prediction_accuracy 97.70769
Core_2_branch_MPKI 2.80792
Core_2_average_ROB_occupancy_at_mispredict 95.78861

Core_2_L1D_total_access 14424770
Core_2_L1D_total_hit 13086131
Core_2_L1D_total_miss 1338639
Core_2_L1D_loads 9624724
Core_2_L1D_load_hit 8413620
Core_2_L1D_load_miss 1211104
Core_2_L1D_RFOs 4800046
Core_2_L1D_RFO_hit 4672511
Core_2_L1D_RFO_miss 127535
Core_2_L1D_prefetches 0
Core_2_L1D_prefetch_hit 0
Core_2_L1D_prefetch_miss 0
Core_2_L1D_writebacks 0
Core_2_L1D_writeback_hit 0
Core_2_L1D_writeback_miss 0
Core_2_L1D_prefetch_requested 0
Core_2_L1D_prefetch_dropped 0
Core_2_L1D_prefetch_issued 0
Core_2_L1D_prefetch_filled 0
Core_2_L1D_prefetch_useful 0
Core_2_L1D_prefetch_useless 0
Core_2_L1D_prefetch_late 0
Core_2_L1D_average_miss_latency 223.31516

Core_2_L1D_rq_access 19210643
Core_2_L1D_rq_forward 0
Core_2_L1D_rq_merged 8007906
Core_2_L1D_rq_to_cache 11202508
Core_2_L1D_rq_full 0

Core_2_L1D_wq_access 5922217
Core_2_L1D_wq_forward 229
Core_2_L1D_wq_merged 129432
Core_2_L1D_wq_to_cache 5792785
Core_2_L1D_wq_full 1186

Core_2_L1D_pq_access 0
Core_2_L1D_pq_forward 0
Core_2_L1D_pq_merged 0
Core_2_L1D_pq_to_cache 0
Core_2_L1D_pq_full 0

Core_2_L1D_acc_epochs 232989
Core_2_L1D_acc_level_0 232989
Core_2_L1D_acc_level_1 0
Core_2_L1D_acc_level_2 0
Core_2_L1D_acc_level_3 0
Core_2_L1D_acc_level_4 0
Core_2_L1D_acc_level_5 0
Core_2_L1D_acc_level_6 0
Core_2_L1D_acc_level_7 0
Core_2_L1D_acc_level_8 0
Core_2_L1D_acc_level_9 0

Core_2_L1I_total_access 29936114
Core_2_L1I_total_hit 29553903
Core_2_L1I_total_miss 382211
Core_2_L1I_loads 29936114
Core_2_L1I_load_hit 29553903
Core_2_L1I_load_miss 382211
Core_2_L1I_RFOs 0
Core_2_L1I_RFO_hit 0
Core_2_L1I_RFO_miss 0
Core_2_L1I_prefetches 0
Core_2_L1I_prefetch_hit 0
Core_2_L1I_prefetch_miss 0
Core_2_L1I_writebacks 0
Core_2_L1I_writeback_hit 0
Core_2_L1I_writeback_miss 0
Core_2_L1I_prefetch_requested 0
Core_2_L1I_prefetch_dropped 0
Core_2_L1I_prefetch_issued 0
Core_2_L1I_prefetch_filled 0
Core_2_L1I_prefetch_useful 0
Core_2_L1I_prefetch_useless 0
Core_2_L1I_prefetch_late 0
Core_2_L1I_average_miss_latency 101.76795

Core_2_L1I_rq_access 166268597
Core_2_L1I_rq_forward 0
Core_2_L1I_rq_merged 132807645
Core_2_L1I_rq_to_cache 33460952
Core_2_L1I_rq_full 0

Core_2_L1I_wq_access 0
Core_2_L1I_wq_forward 0
Core_2_L1I_wq_merged 0
Core_2_L1I_wq_to_cache 0
Core_2_L1I_wq_full 0

Core_2_L1I_pq_access 0
Core_2_L1I_pq_forward 0
Core_2_L1I_pq_merged 0
Core_2_L1I_pq_to_cache 0
Core_2_L1I_pq_full 0

Core_2_L1I_acc_epochs 232989
Core_2_L1I_acc_level_0 232989
Core_2_L1I_acc_level_1 0
Core_2_L1I_acc_level_2 0
Core_2_L1I_acc_level_3 0
Core_2_L1I_acc_level_4 0
Core_2_L1I_acc_level_5 0
Core_2_L1I_acc_level_6 0
Core_2_L1I_acc_level_7 0
Core_2_L1I_acc_level_8 0
Core_2_L1I_acc_level_9 0

Core_2_L2C_total_access 2081115
Core_2_L2C_total_hit 629628
Core_2_L2C_total_miss 1451487
Core_2_L2C_loads 1593302
Core_2_L2C_load_hit 250601
Core_2_L2C_load_miss 1342701
Core_2_L2C_RFOs 127523
Core_2_L2C_RFO_hit 20499
Core_2_L2C_RFO_miss 107024
Core_2_L2C_prefetches 0
Core_2_L2C_prefetch_hit 0
Core_2_L2C_prefetch_miss 0
Core_2_L2C_writebacks 360290
Core_2_L2C_writeback_hit 358528
Core_2_L2C_writeback_miss 1762
Core_2_L2C_prefetch_requested 0
Core_2_L2C_prefetch_dropped 0
Core_2_L2C_prefetch_issued 0
Core_2_L2C_prefetch_filled 0
Core_2_L2C_prefetch_useful 0
Core_2_L2C_prefetch_useless 0
Core_2_L2C_prefetch_late 0
Core_2_L2C_average_miss_latency 185.66282

Core_2_L2C_rq_access 1945943
Core_2_L2C_rq_forward 0
Core_2_L2C_rq_merged 0
Core_2_L2C_rq_to_cache 1945915
Core_2_L2C_rq_full 0

Core_2_L2C_wq_access 408082
Core_2_L2C_wq_forward 28
Core_2_L2C_wq_merged 0
Core_2_L2C_wq_to_cache 408082
Core_2_L2C_wq_full 0

Core_2_L2C_pq_access 0
Core_2_L2C_pq_forward 0
Core_2_L2C_pq_merged 0
Core_2_L2C_pq_to_cache 0
Core_2_L2C_pq_full 0

Core_2_L2C_acc_epochs 232989
Core_2_L2C_acc_level_0 232989
Core_2_L2C_acc_level_1 0
Core_2_L2C_acc_level_2 0
Core_2_L2C_acc_level_3 0
Core_2_L2C_acc_level_4 0
Core_2_L2C_acc_level_5 0
Core_2_L2C_acc_level_6 0
Core_2_L2C_acc_level_7 0
Core_2_L2C_acc_level_8 0
Core_2_L2C_acc_level_9 0

Core_2_LLC_total_access 1777539
Core_2_LLC_total_hit 744773
Core_2_LLC_total_miss 1032766
Core_2_LLC_loads 1342700
Core_2_LLC_load_hit 520941
Core_2_LLC_load_miss 821759
Core_2_LLC_RFOs 107023
Core_2_LLC_RFO_hit 43854
Core_2_LLC_RFO_miss 63169
Core_2_LLC_prefetches 0
Core_2_LLC_prefetch_hit 0
Core_2_LLC_prefetch_miss 0
Core_2_LLC_writebacks 327816
Core_2_LLC_writeback_hit 179978
Core_2_LLC_writeback_miss 147838
Core_2_LLC_prefetch_requested 0
Core_2_LLC_prefetch_dropped 0
Core_2_LLC_prefetch_issued 0
Core_2_LLC_prefetch_filled 0
Core_2_LLC_prefetch_useful 0
Core_2_LLC_prefetch_useless 0
Core_2_LLC_prefetch_late 0
Core_2_LLC_average_miss_latency 730.56980

Core_2_LLC_rq_access 6632897
Core_2_LLC_rq_forward 0
Core_2_LLC_rq_merged 0
Core_2_LLC_rq_to_cache 6632880
Core_2_LLC_rq_full 0

Core_2_LLC_wq_access 1514468
Core_2_LLC_wq_forward 17
Core_2_LLC_wq_merged 0
Core_2_LLC_wq_to_cache 1514468
Core_2_LLC_wq_full 0

Core_2_LLC_pq_access 0
Core_2_LLC_pq_forward 0
Core_2_LLC_pq_merged 0
Core_2_LLC_pq_to_cache 0
Core_2_LLC_pq_full 0

Core_2_LLC_acc_epochs 486801
Core_2_LLC_acc_level_0 486801
Core_2_LLC_acc_level_1 0
Core_2_LLC_acc_level_2 0
Core_2_LLC_acc_level_3 0
Core_2_LLC_acc_level_4 0
Core_2_LLC_acc_level_5 0
Core_2_LLC_acc_level_6 0
Core_2_LLC_acc_level_7 0
Core_2_LLC_acc_level_8 0
Core_2_LLC_acc_level_9 0

Core_2_major_page_fault 0
Core_2_minor_page_fault 43118

Core_3_instructions 150000003
Core_3_cycles 444882305
Core_3_IPC 0.33717

Core_3_branch_prediction_accuracy 97.32672
Core_3_branch_MPKI 3.19103
Core_3_average_ROB_occupancy_at_mispredict 88.65095

Core_3_L1D_total_access 14584808
Core_3_L1D_total_hit 13128671
Core_3_L1D_total_miss 1456137
Core_3_L1D_loads 9626585
Core_3_L1D_load_hit 8324698
Core_3_L1D_load_miss 1301887
Core_3_L1D_RFOs 4958223
Core_3_L1D_RFO_hit 4803973
Core_3_L1D_RFO_miss 154250
Core_3_L1D_prefetches 0
Core_3_L1D_prefetch_hit 0
Core_3_L1D_prefetch_miss 0
Core_3_L1D_writebacks 0
Core_3_L1D_writeback_hit 0
Core_3_L1D_writeback_miss 0
Core_3_L1D_prefetch_requested 0
Core_3_L1D_prefetch_dropped 0
Core_3_L1D_prefetch_issued 0
Core_3_L1D_prefetch_filled 0
Core_3_L1D_prefetch_useful 0
Core_3_L1D_prefetch_useless 0
Core_3_L1D_prefetch_late 0
Core_3_L1D_average_miss_latency 203.88252

Core_3_L1D_rq_access 18977805
Core_3_L1D_rq_forward 0
Core_3_L1D_rq_merged 8075919
Core_3_L1D_rq_to_cache 10901691
Core_3_L1D_rq_full 0

Core_3_L1D_wq_access 5944396
Core_3_L1D_wq_forward 195
Core_3_L1D_wq_merged 130387
Core_3_L1D_wq_to_cache 5814009
Core_3_L1D_wq_full 0

Core_3_L1D_pq_access 0
Core_3_L1D_pq_forward 0
Core_3_L1D_pq_merged 0
Core_3_L1D_pq_to_cache 0
Core_3_L1D_pq_full 0

Core_3_L1D_acc_epochs 231510
Core_3_L1D_acc_level_0 231510
Core_3_L1D_acc_level_1 0
Core_3_L1D_acc_level_2 0
Core_3_L1D_acc_level_3 0
Core_3_L1D_acc_level_4 0
Core_3_L1D_acc_level_5 0
Core_3_L1D_acc_level_6 0
Core_3_L1D_acc_level_7 0
Core_3_L1D_acc_level_8 0
Core_3_L1D_acc_level_9 0

Core_3_L1I_total_access 29684581
Core_3_L1I_total_hit 29088496
Core_3_L1I_total_miss 596085
Core_3_L1I_loads 29684581
Core_3_L1I_load_hit 29088496
Core_3_L1I_load_miss 596085
Core_3_L1I_RFOs 0
Core_3_L1I_RFO_hit 0
Core_3_L1I_RFO_miss 0
Core_3_L1I_prefetches 0
Core_3_L1I_prefetch_hit 0
Core_3_L1I_prefetch_miss 0
Core_3_L1I_writebacks 0
Core_3_L1I_writeback_hit 0
Core_3_L1I_writeback_miss 0
Core_3_L1I_prefetch_requested 0
Core_3_L1I_prefetch_dropped 0
Core_3_L1I_prefetch_issued 0
Core_3_L1I_prefetch_filled 0
Core_3_L1I_prefetch_useful 0
Core_3_L1I_prefetch_useless 0
Core_3_L1I_prefetch_late 0
Core_3_L1I_average_miss_latency 85.17713

Core_3_L1I_rq_access 162192276
Core_3_L1I_rq_forward 0
Core_3_L1I_rq_merged 129672388
Core_3_L1I_rq_to_cache 32519888
Core_3_L1I_rq_full 0

Core_3_L1I_wq_access 0
Core_3_L1I_wq_forward 0
Core_3_L1I_wq_merged 0
Core_3_L1I_wq_to_cache 0
Core_3_L1I_wq_full 0

Core_3_L1I_pq_access 0
Core_3_L1I_pq_forward 0
Core_3_L1I_pq_merged 0
Core_3_L1I_pq_to_cache 0
Core_3_L1I_pq_full 0

Core_3_L1I_acc_epochs 231510
Core_3_L1I_acc_level_0 231510
Core_3_L1I_acc_level_1 0
Core_3_L1I_acc_level_2 0
Core_3_L1I_acc_level_3 0
Core_3_L1I_acc_level_4 0
Core_3_L1I_acc_level_5 0
Core_3_L1I_acc_level_6 0
Core_3_L1I_acc_level_7 0
Core_3_L1I_acc_level_8 0
Core_3_L1I_acc_level_9 0

Core_3_L2C_total_access 2452970
Core_3_L2C_total_hit 881811
Core_3_L2C_total_miss 1571159
Core_3_L2C_loads 1897968
Core_3_L2C_load_hit 454990
Core_3_L2C_load_miss 1442978
Core_3_L2C_RFOs 154222
Core_3_L2C_RFO_hit 28945
Core_3_L2C_RFO_miss 125277
Core_3_L2C_prefetches 0
Core_3_L2C_prefetch_hit 0
Core_3_L2C_prefetch_miss 0
Core_3_L2C_writebacks 400780
Core_3_L2C_writeback_hit 397876
Core_3_L2C_writeback_miss 2904
Core_3_L2C_prefetch_requested 0
Core_3_L2C_prefetch_dropped 0
Core_3_L2C_prefetch_issued 0
Core_3_L2C_prefetch_filled 0
Core_3_L2C_prefetch_useful 0
Core_3_L2C_prefetch_useless 0
Core_3_L2C_prefetch_late 0
Core_3_L2C_average_miss_latency 169.10465

Core_3_L2C_rq_access 2187755
Core_3_L2C_rq_forward 0
Core_3_L2C_rq_merged 0
Core_3_L2C_rq_to_cache 2187719
Core_3_L2C_rq_full 0

Core_3_L2C_wq_access 430349
Core_3_L2C_wq_forward 36
Core_3_L2C_wq_merged 0
Core_3_L2C_wq_to_cache 430349
Core_3_L2C_wq_full 0

Core_3_L2C_pq_access 0
Core_3_L2C_pq_forward 0
Core_3_L2C_pq_merged 0
Core_3_L2C_pq_to_cache 0
Core_3_L2C_pq_full 0

Core_3_L2C_acc_epochs 231510
Core_3_L2C_acc_level_0 231510
Core_3_L2C_acc_level_1 0
Core_3_L2C_acc_level_2 0
Core_3_L2C_acc_level_3 0
Core_3_L2C_acc_level_4 0
Core_3_L2C_acc_level_5 0
Core_3_L2C_acc_level_6 0
Core_3_L2C_acc_level_7 0
Core_3_L2C_acc_level_8 0
Core_3_L2C_acc_level_9 0

Core_3_LLC_total_access 1925639
Core_3_LLC_total_hit 905238
Core_3_LLC_total_miss 1020401
Core_3_LLC_loads 1442977
Core_3_LLC_load_hit 645978
Core_3_LLC_load_miss 796999
Core_3_LLC_RFOs 125276
Core_3_LLC_RFO_hit 52980
Core_3_LLC_RFO_miss 72296
Core_3_LLC_prefetches 0
Core_3_LLC_prefetch_hit 0
Core_3_LLC_prefetch_miss 0
Core_3_LLC_writebacks 357386
Core_3_LLC_writeback_hit 206280
Core_3_LLC_writeback_miss 151106
Core_3_LLC_prefetch_requested 0
Core_3_LLC_prefetch_dropped 0
Core_3_LLC_prefetch_issued 0
Core_3_LLC_prefetch_filled 0
Core_3_LLC_prefetch_useful 0
Core_3_LLC_prefetch_useless 0
Core_3_LLC_prefetch_late 0
Core_3_LLC_average_miss_latency 739.42269

Core_3_LLC_rq_access 6632897
Core_3_LLC_rq_forward 0
Core_3_LLC_rq_merged 0
Core_3_LLC_rq_to_cache 6632880
Core_3_LLC_rq_full 0

Core_3_LLC_wq_access 1514468
Core_3_LLC_wq_forward 17
Core_3_LLC_wq_merged 0
Core_3_LLC_wq_to_cache 1514468
Core_3_LLC_wq_full 0

Core_3_LLC_pq_access 0
Core_3_LLC_pq_forward 0
Core_3_LLC_pq_merged 0
Core_3_LLC_pq_to_cache 0
Core_3_LLC_pq_full 0

Core_3_LLC_acc_epochs 486801
Core_3_LLC_acc_level_0 486801
Core_3_LLC_acc_level_1 0
Core_3_LLC_acc_level_2 0
Core_3_LLC_acc_level_3 0
Core_3_LLC_acc_level_4 0
Core_3_LLC_acc_level_5 0
Core_3_LLC_acc_level_6 0
Core_3_LLC_acc_level_7 0
Core_3_LLC_acc_level_8 0
Core_3_LLC_acc_level_9 0

Core_3_major_page_fault 0
Core_3_minor_page_fault 46807

Channel_0_RQ_row_buffer_hit 122594
Channel_0_RQ_row_buffer_miss 1804270
Channel_0_WQ_row_buffer_hit 97900
Channel_0_WQ_row_buffer_miss 491148
Channel_0_WQ_full 0
Channel_0_dbus_congested 393754

Channel_1_RQ_row_buffer_hit 123561
Channel_1_RQ_row_buffer_miss 1799863
Channel_1_WQ_row_buffer_hit 97734
Channel_1_WQ_row_buffer_miss 489584
Channel_1_WQ_full 0
Channel_1_dbus_congested 390523

avg_congested_cycle 10

DRAM_bw_pochs 1947204
DRAM_bw_level_0 1869539
DRAM_bw_level_1 71882
DRAM_bw_level_2 5591
DRAM_bw_level_3 192
