*************************************************
   ChampSim Multicore Out-of-Order Simulator
   Last compiled: Mar 31 2025 20:14:32
*************************************************
parsing config file: /data3/config/nopref.ini

trace_0 /data3/CASSANDRA/traces/cassandra_phase4_core0.trace.xz
trace_1 /data3/CASSANDRA/traces/cassandra_phase4_core1.trace.xz
trace_2 /data3/CASSANDRA/traces/cassandra_phase4_core2.trace.xz
trace_3 /data3/CASSANDRA/traces/cassandra_phase4_core3.trace.xz
adding L2C_PREFETCHER: NONE
adding L2C_PREFETCHER: NONE
adding L2C_PREFETCHER: NONE
adding L2C_PREFETCHER: NONE
Initialize SHIP state
warmup_instructions 50000000
simulation_instructions 150000000
champsim_seed 8758
measure_ipc 0
measure_ipc_epoch 1000
measure_dram_bw 1
measure_dram_bw_epoch 256
measure_cache_acc 1
measure_cache_acc_epoch 1024
l1d_perfect 0
l2c_perfect 0
llc_perfect 0
l1d_semi_perfect 0
l2c_semi_perfect 0
llc_semi_perfect 0
semi_perfect_cache_page_buffer_size 64

num_cpus 4
cpu_freq 4000
dram_io_freq 2400
page_size 4096
block_size 64
max_read_per_cycle 8
max_fill_per_cycle 1
dram_channels 2
log2_dram_channels 1
dram_ranks 1
dram_banks 8
dram_rows 65536
dram_columns 128
dram_row_size 8
dram_size 8192
dram_pages 2097152

fetch_width 6
decode_width 6
exec_width 4
lq_width 2
sq_width 2
retire_width 4
scheduler_size 128
branch_mispredict_penalty 20
rob_size 256
lq_size 72
sq_size 56
num_instr_destinations_sparc 4
num_instr_destinations 2
num_instr_sources 4

itlb_set 16
itlb_way 8
itlb_rq_size 16
itlb_wq_size 16
itlb_pq_size 0
itlb_mshr_size 8
itlb_latency 1

dtlb_set 16
dtlb_way 4
dtlb_rq_size 16
dtlb_wq_size 16
dtlb_pq_size 0
dtlb_mshr_size 8
dtlb_latency 1

stlb_set 128
stlb_way 12
stlb_rq_size 32
stlb_wq_size 32
stlb_pq_size 0
stlb_mshr_size 16
stlb_latency 8

l1i_size 32
l1i_set 64
l1i_way 8
l1i_rq_size 64
l1i_wq_size 64
l1i_pq_size 8
l1i_mshr_size 8
l1i_latency 1

l1d_size 32
l1d_set 64
l1d_way 8
l1d_rq_size 64
l1d_wq_size 64
l1d_pq_size 8
l1d_mshr_size 16
l1d_latency 4

l2c_size 256
l2c_set 512
l2c_way 8
l2c_rq_size 32
l2c_wq_size 32
l2c_pq_size 32
l2c_mshr_size 32
l2c_latency 10

llc_size 8192
llc_set 8192
llc_way 16
llc_rq_size 128
llc_wq_size 128
llc_pq_size 128
llc_mshr_size 256
llc_latency 20

dram_channel_width 8
dram_wq_size 64
dram_rq_size 64
tRP 15
tRCD 15
tCAS 12.5
dram_dbus_turn_around_time 30
dram_write_high_wm 56
dram_write_low_wm 48
min_dram_writes_per_switch 16
dram_mtps 2400
dram_dbus_return_time 13


Heartbeat CPU  2 instructions:    1000002 cycles:     330671 heartbeat IPC: 3.02416 cumulative IPC: 3.02416 (Simulation time: 0 hr 0 min 5 sec) 
Heartbeat CPU  1 instructions:    1000001 cycles:     336461 heartbeat IPC: 2.97212 cumulative IPC: 2.97212 (Simulation time: 0 hr 0 min 6 sec) 
Heartbeat CPU  3 instructions:    1000002 cycles:     336529 heartbeat IPC: 2.97152 cumulative IPC: 2.97152 (Simulation time: 0 hr 0 min 6 sec) 
Heartbeat CPU  0 instructions:    1000000 cycles:     508928 heartbeat IPC: 1.96491 cumulative IPC: 1.96491 (Simulation time: 0 hr 0 min 8 sec) 
Heartbeat CPU  1 instructions:    2000000 cycles:     649161 heartbeat IPC: 3.19795 cumulative IPC: 3.08090 (Simulation time: 0 hr 0 min 10 sec) 
Heartbeat CPU  2 instructions:    2000003 cycles:     657234 heartbeat IPC: 3.06220 cumulative IPC: 3.04306 (Simulation time: 0 hr 0 min 10 sec) 
Heartbeat CPU  3 instructions:    2000002 cycles:     660167 heartbeat IPC: 3.08987 cumulative IPC: 3.02954 (Simulation time: 0 hr 0 min 11 sec) 
Heartbeat CPU  0 instructions:    2000003 cycles:     971155 heartbeat IPC: 2.16345 cumulative IPC: 2.05941 (Simulation time: 0 hr 0 min 15 sec) 
Heartbeat CPU  3 instructions:    3000001 cycles:     984648 heartbeat IPC: 3.08184 cumulative IPC: 3.04678 (Simulation time: 0 hr 0 min 16 sec) 
Heartbeat CPU  1 instructions:    3000001 cycles:    1067547 heartbeat IPC: 2.39014 cumulative IPC: 2.81018 (Simulation time: 0 hr 0 min 17 sec) 
Heartbeat CPU  2 instructions:    3000002 cycles:    1242161 heartbeat IPC: 1.70961 cumulative IPC: 2.41515 (Simulation time: 0 hr 0 min 19 sec) 
Heartbeat CPU  0 instructions:    3000002 cycles:    1296529 heartbeat IPC: 3.07338 cumulative IPC: 2.31387 (Simulation time: 0 hr 0 min 20 sec) 
Heartbeat CPU  3 instructions:    4000000 cycles:    1350069 heartbeat IPC: 2.73657 cumulative IPC: 2.96281 (Simulation time: 0 hr 0 min 20 sec) 
Heartbeat CPU  1 instructions:    4000000 cycles:    1575883 heartbeat IPC: 1.96720 cumulative IPC: 2.53826 (Simulation time: 0 hr 0 min 24 sec) 
Heartbeat CPU  0 instructions:    4000000 cycles:    1619561 heartbeat IPC: 3.09566 cumulative IPC: 2.46981 (Simulation time: 0 hr 0 min 24 sec) 
Heartbeat CPU  2 instructions:    4000000 cycles:    1660132 heartbeat IPC: 2.39251 cumulative IPC: 2.40945 (Simulation time: 0 hr 0 min 25 sec) 
Heartbeat CPU  1 instructions:    5000000 cycles:    1906112 heartbeat IPC: 3.02820 cumulative IPC: 2.62314 (Simulation time: 0 hr 0 min 29 sec) 
Heartbeat CPU  3 instructions:    5000001 cycles:    1921309 heartbeat IPC: 1.75058 cumulative IPC: 2.60239 (Simulation time: 0 hr 0 min 29 sec) 
Heartbeat CPU  0 instructions:    5000000 cycles:    1945249 heartbeat IPC: 3.07042 cumulative IPC: 2.57036 (Simulation time: 0 hr 0 min 29 sec) 
Heartbeat CPU  2 instructions:    5000001 cycles:    1987721 heartbeat IPC: 3.05261 cumulative IPC: 2.51544 (Simulation time: 0 hr 0 min 30 sec) 
Heartbeat CPU  1 instructions:    6000000 cycles:    2233817 heartbeat IPC: 3.05153 cumulative IPC: 2.68599 (Simulation time: 0 hr 0 min 34 sec) 
Heartbeat CPU  3 instructions:    6000000 cycles:    2262088 heartbeat IPC: 2.93445 cumulative IPC: 2.65242 (Simulation time: 0 hr 0 min 35 sec) 
Heartbeat CPU  2 instructions:    6000003 cycles:    2311578 heartbeat IPC: 3.08779 cumulative IPC: 2.59563 (Simulation time: 0 hr 0 min 35 sec) 
Heartbeat CPU  0 instructions:    6000003 cycles:    2322290 heartbeat IPC: 2.65224 cumulative IPC: 2.58366 (Simulation time: 0 hr 0 min 36 sec) 
Heartbeat CPU  1 instructions:    7000002 cycles:    2588767 heartbeat IPC: 2.81730 cumulative IPC: 2.70399 (Simulation time: 0 hr 0 min 40 sec) 
Heartbeat CPU  3 instructions:    7000000 cycles:    2589438 heartbeat IPC: 3.05483 cumulative IPC: 2.70329 (Simulation time: 0 hr 0 min 40 sec) 
Heartbeat CPU  2 instructions:    7000001 cycles:    2637210 heartbeat IPC: 3.07095 cumulative IPC: 2.65432 (Simulation time: 0 hr 0 min 41 sec) 
Heartbeat CPU  0 instructions:    7000000 cycles:    2861642 heartbeat IPC: 1.85407 cumulative IPC: 2.44615 (Simulation time: 0 hr 0 min 44 sec) 
Heartbeat CPU  1 instructions:    8000000 cycles:    2952358 heartbeat IPC: 2.75034 cumulative IPC: 2.70970 (Simulation time: 0 hr 0 min 45 sec) 
Heartbeat CPU  2 instructions:    8000000 cycles:    2959743 heartbeat IPC: 3.10045 cumulative IPC: 2.70294 (Simulation time: 0 hr 0 min 45 sec) 
Heartbeat CPU  3 instructions:    8000000 cycles:    2972123 heartbeat IPC: 2.61312 cumulative IPC: 2.69168 (Simulation time: 0 hr 0 min 45 sec) 
Heartbeat CPU  0 instructions:    8000000 cycles:    3251300 heartbeat IPC: 2.56635 cumulative IPC: 2.46055 (Simulation time: 0 hr 0 min 50 sec) 
Heartbeat CPU  1 instructions:    9000002 cycles:    3293153 heartbeat IPC: 2.93432 cumulative IPC: 2.73294 (Simulation time: 0 hr 0 min 50 sec) 
Heartbeat CPU  3 instructions:    9000000 cycles:    3305687 heartbeat IPC: 2.99793 cumulative IPC: 2.72258 (Simulation time: 0 hr 0 min 51 sec) 
Heartbeat CPU  2 instructions:    9000002 cycles:    3332919 heartbeat IPC: 2.67971 cumulative IPC: 2.70034 (Simulation time: 0 hr 0 min 51 sec) 
Heartbeat CPU  1 instructions:   10000003 cycles:    3612179 heartbeat IPC: 3.13454 cumulative IPC: 2.76841 (Simulation time: 0 hr 0 min 55 sec) 
Heartbeat CPU  2 instructions:   10000002 cycles:    3656150 heartbeat IPC: 3.09376 cumulative IPC: 2.73512 (Simulation time: 0 hr 0 min 56 sec) 
Heartbeat CPU  0 instructions:    9000002 cycles:    3693066 heartbeat IPC: 2.26365 cumulative IPC: 2.43700 (Simulation time: 0 hr 0 min 57 sec) 
Heartbeat CPU  3 instructions:   10000001 cycles:    3701495 heartbeat IPC: 2.52648 cumulative IPC: 2.70161 (Simulation time: 0 hr 0 min 57 sec) 
Heartbeat CPU  1 instructions:   11000000 cycles:    3933776 heartbeat IPC: 3.10947 cumulative IPC: 2.79630 (Simulation time: 0 hr 1 min 0 sec) 
Heartbeat CPU  3 instructions:   11000002 cycles:    4026617 heartbeat IPC: 3.07577 cumulative IPC: 2.73182 (Simulation time: 0 hr 1 min 2 sec) 
Heartbeat CPU  2 instructions:   11000001 cycles:    4100531 heartbeat IPC: 2.25032 cumulative IPC: 2.68258 (Simulation time: 0 hr 1 min 3 sec) 
Heartbeat CPU  0 instructions:   10000000 cycles:    4105028 heartbeat IPC: 2.42740 cumulative IPC: 2.43604 (Simulation time: 0 hr 1 min 3 sec) 
Heartbeat CPU  1 instructions:   12000000 cycles:    4255217 heartbeat IPC: 3.11099 cumulative IPC: 2.82007 (Simulation time: 0 hr 1 min 5 sec) 
Heartbeat CPU  3 instructions:   12000000 cycles:    4351933 heartbeat IPC: 3.07393 cumulative IPC: 2.75740 (Simulation time: 0 hr 1 min 7 sec) 
Heartbeat CPU  2 instructions:   12000000 cycles:    4426983 heartbeat IPC: 3.06323 cumulative IPC: 2.71065 (Simulation time: 0 hr 1 min 8 sec) 
Heartbeat CPU  0 instructions:   11000001 cycles:    4446913 heartbeat IPC: 2.92496 cumulative IPC: 2.47363 (Simulation time: 0 hr 1 min 9 sec) 
Heartbeat CPU  1 instructions:   13000000 cycles:    4577398 heartbeat IPC: 3.10385 cumulative IPC: 2.84004 (Simulation time: 0 hr 1 min 11 sec) 
Heartbeat CPU  3 instructions:   13000002 cycles:    4676873 heartbeat IPC: 3.07750 cumulative IPC: 2.77964 (Simulation time: 0 hr 1 min 13 sec) 
Heartbeat CPU  0 instructions:   12000000 cycles:    4774997 heartbeat IPC: 3.04800 cumulative IPC: 2.51309 (Simulation time: 0 hr 1 min 14 sec) 
Heartbeat CPU  2 instructions:   13000001 cycles:    4800872 heartbeat IPC: 2.67459 cumulative IPC: 2.70784 (Simulation time: 0 hr 1 min 15 sec) 
Heartbeat CPU  1 instructions:   14000001 cycles:    4923977 heartbeat IPC: 2.88535 cumulative IPC: 2.84323 (Simulation time: 0 hr 1 min 17 sec) 
Heartbeat CPU  3 instructions:   14000000 cycles:    5030753 heartbeat IPC: 2.82581 cumulative IPC: 2.78288 (Simulation time: 0 hr 1 min 18 sec) 
Heartbeat CPU  0 instructions:   13000002 cycles:    5103615 heartbeat IPC: 3.04305 cumulative IPC: 2.54721 (Simulation time: 0 hr 1 min 20 sec) 
Heartbeat CPU  2 instructions:   14000000 cycles:    5150610 heartbeat IPC: 2.85928 cumulative IPC: 2.71812 (Simulation time: 0 hr 1 min 20 sec) 
Heartbeat CPU  1 instructions:   15000000 cycles:    5240630 heartbeat IPC: 3.15803 cumulative IPC: 2.86225 (Simulation time: 0 hr 1 min 22 sec) 
Heartbeat CPU  3 instructions:   15000003 cycles:    5503201 heartbeat IPC: 2.11664 cumulative IPC: 2.72569 (Simulation time: 0 hr 1 min 25 sec) 
Heartbeat CPU  2 instructions:   15000002 cycles:    5514773 heartbeat IPC: 2.74603 cumulative IPC: 2.71997 (Simulation time: 0 hr 1 min 26 sec) 
Heartbeat CPU  0 instructions:   14000001 cycles:    5570272 heartbeat IPC: 2.14290 cumulative IPC: 2.51334 (Simulation time: 0 hr 1 min 26 sec) 
Heartbeat CPU  1 instructions:   16000000 cycles:    5639174 heartbeat IPC: 2.50913 cumulative IPC: 2.83730 (Simulation time: 0 hr 1 min 28 sec) 
Heartbeat CPU  3 instructions:   16000000 cycles:    5830147 heartbeat IPC: 3.05860 cumulative IPC: 2.74436 (Simulation time: 0 hr 1 min 30 sec) 
Heartbeat CPU  0 instructions:   15000000 cycles:    5969060 heartbeat IPC: 2.50760 cumulative IPC: 2.51296 (Simulation time: 0 hr 1 min 32 sec) 
Heartbeat CPU  2 instructions:   16000000 cycles:    6013419 heartbeat IPC: 2.00543 cumulative IPC: 2.66072 (Simulation time: 0 hr 1 min 33 sec) 
Heartbeat CPU  3 instructions:   17000000 cycles:    6158287 heartbeat IPC: 3.04748 cumulative IPC: 2.76051 (Simulation time: 0 hr 1 min 35 sec) 
Heartbeat CPU  0 instructions:   16000000 cycles:    6297372 heartbeat IPC: 3.04588 cumulative IPC: 2.54074 (Simulation time: 0 hr 1 min 37 sec) 
Heartbeat CPU  2 instructions:   17000001 cycles:    6386664 heartbeat IPC: 2.67921 cumulative IPC: 2.66180 (Simulation time: 0 hr 1 min 38 sec) 
Heartbeat CPU  1 instructions:   17000001 cycles:    6426110 heartbeat IPC: 1.27075 cumulative IPC: 2.64546 (Simulation time: 0 hr 1 min 38 sec) 
Heartbeat CPU  3 instructions:   18000000 cycles:    6558993 heartbeat IPC: 2.49560 cumulative IPC: 2.74432 (Simulation time: 0 hr 1 min 40 sec) 
Heartbeat CPU  0 instructions:   17000003 cycles:    6623807 heartbeat IPC: 3.06341 cumulative IPC: 2.56650 (Simulation time: 0 hr 1 min 42 sec) 
Heartbeat CPU  2 instructions:   18000000 cycles:    6714174 heartbeat IPC: 3.05334 cumulative IPC: 2.68090 (Simulation time: 0 hr 1 min 43 sec) 
Heartbeat CPU  1 instructions:   18000003 cycles:    6783755 heartbeat IPC: 2.79607 cumulative IPC: 2.65340 (Simulation time: 0 hr 1 min 44 sec) 
Heartbeat CPU  3 instructions:   19000001 cycles:    6950801 heartbeat IPC: 2.55227 cumulative IPC: 2.73350 (Simulation time: 0 hr 1 min 46 sec) 
Heartbeat CPU  2 instructions:   19000000 cycles:    7038791 heartbeat IPC: 3.08055 cumulative IPC: 2.69933 (Simulation time: 0 hr 1 min 47 sec) 
Heartbeat CPU  0 instructions:   18000001 cycles:    7165682 heartbeat IPC: 1.84544 cumulative IPC: 2.51197 (Simulation time: 0 hr 1 min 48 sec) 
Heartbeat CPU  3 instructions:   20000000 cycles:    7334711 heartbeat IPC: 2.60477 cumulative IPC: 2.72676 (Simulation time: 0 hr 1 min 51 sec) 
Heartbeat CPU  2 instructions:   20000000 cycles:    7359924 heartbeat IPC: 3.11397 cumulative IPC: 2.71742 (Simulation time: 0 hr 1 min 51 sec) 
Heartbeat CPU  0 instructions:   19000000 cycles:    7621105 heartbeat IPC: 2.19576 cumulative IPC: 2.49308 (Simulation time: 0 hr 1 min 54 sec) 
Heartbeat CPU  2 instructions:   21000002 cycles:    7684338 heartbeat IPC: 3.08249 cumulative IPC: 2.73283 (Simulation time: 0 hr 1 min 55 sec) 
Heartbeat CPU  1 instructions:   19000000 cycles:    7697001 heartbeat IPC: 1.09499 cumulative IPC: 2.46849 (Simulation time: 0 hr 1 min 55 sec) 
Heartbeat CPU  3 instructions:   21000003 cycles:    7701212 heartbeat IPC: 2.72851 cumulative IPC: 2.72684 (Simulation time: 0 hr 1 min 55 sec) 
Heartbeat CPU  2 instructions:   22000001 cycles:    8004246 heartbeat IPC: 3.12590 cumulative IPC: 2.74854 (Simulation time: 0 hr 2 min 0 sec) 
Heartbeat CPU  0 instructions:   20000000 cycles:    8022773 heartbeat IPC: 2.48962 cumulative IPC: 2.49290 (Simulation time: 0 hr 2 min 0 sec) 
Heartbeat CPU  3 instructions:   22000003 cycles:    8042709 heartbeat IPC: 2.92828 cumulative IPC: 2.73540 (Simulation time: 0 hr 2 min 0 sec) 
Heartbeat CPU  2 instructions:   23000001 cycles:    8329704 heartbeat IPC: 3.07259 cumulative IPC: 2.76120 (Simulation time: 0 hr 2 min 4 sec) 
Heartbeat CPU  3 instructions:   23000000 cycles:    8373211 heartbeat IPC: 3.02569 cumulative IPC: 2.74686 (Simulation time: 0 hr 2 min 4 sec) 
Heartbeat CPU  0 instructions:   21000000 cycles:    8504093 heartbeat IPC: 2.07762 cumulative IPC: 2.46940 (Simulation time: 0 hr 2 min 6 sec) 
Heartbeat CPU  1 instructions:   20000000 cycles:    8609928 heartbeat IPC: 1.09538 cumulative IPC: 2.32290 (Simulation time: 0 hr 2 min 7 sec) 
Heartbeat CPU  3 instructions:   24000000 cycles:    8746367 heartbeat IPC: 2.67984 cumulative IPC: 2.74400 (Simulation time: 0 hr 2 min 9 sec) 
Heartbeat CPU  2 instructions:   24000000 cycles:    8828584 heartbeat IPC: 2.00449 cumulative IPC: 2.71844 (Simulation time: 0 hr 2 min 10 sec) 
Heartbeat CPU  0 instructions:   22000000 cycles:    9047326 heartbeat IPC: 1.84083 cumulative IPC: 2.43166 (Simulation time: 0 hr 2 min 13 sec) 
Heartbeat CPU  1 instructions:   21000001 cycles:    9104338 heartbeat IPC: 2.02261 cumulative IPC: 2.30659 (Simulation time: 0 hr 2 min 14 sec) 
Heartbeat CPU  2 instructions:   25000003 cycles:    9165013 heartbeat IPC: 2.97240 cumulative IPC: 2.72777 (Simulation time: 0 hr 2 min 15 sec) 
Heartbeat CPU  3 instructions:   25000003 cycles:    9192991 heartbeat IPC: 2.23903 cumulative IPC: 2.71946 (Simulation time: 0 hr 2 min 15 sec) 
Heartbeat CPU  0 instructions:   23000003 cycles:    9385216 heartbeat IPC: 2.95955 cumulative IPC: 2.45066 (Simulation time: 0 hr 2 min 18 sec) 
Heartbeat CPU  1 instructions:   22000002 cycles:    9436548 heartbeat IPC: 3.01015 cumulative IPC: 2.33136 (Simulation time: 0 hr 2 min 19 sec) 
Heartbeat CPU  3 instructions:   26000002 cycles:    9530132 heartbeat IPC: 2.96611 cumulative IPC: 2.72819 (Simulation time: 0 hr 2 min 21 sec) 
Heartbeat CPU  2 instructions:   26000000 cycles:    9540550 heartbeat IPC: 2.66285 cumulative IPC: 2.72521 (Simulation time: 0 hr 2 min 21 sec) 
Heartbeat CPU  0 instructions:   24000000 cycles:    9710828 heartbeat IPC: 3.07113 cumulative IPC: 2.47147 (Simulation time: 0 hr 2 min 24 sec) 
Heartbeat CPU  1 instructions:   23000003 cycles:    9753633 heartbeat IPC: 3.15373 cumulative IPC: 2.35810 (Simulation time: 0 hr 2 min 25 sec) 
Heartbeat CPU  3 instructions:   27000000 cycles:    9859728 heartbeat IPC: 3.03401 cumulative IPC: 2.73841 (Simulation time: 0 hr 2 min 27 sec) 
Heartbeat CPU  2 instructions:   27000000 cycles:    9911989 heartbeat IPC: 2.69223 cumulative IPC: 2.72397 (Simulation time: 0 hr 2 min 27 sec) 
Heartbeat CPU  0 instructions:   25000000 cycles:   10035697 heartbeat IPC: 3.07816 cumulative IPC: 2.49111 (Simulation time: 0 hr 2 min 29 sec) 
Heartbeat CPU  1 instructions:   24000000 cycles:   10073321 heartbeat IPC: 3.12804 cumulative IPC: 2.38253 (Simulation time: 0 hr 2 min 30 sec) 
Heartbeat CPU  3 instructions:   28000000 cycles:   10185853 heartbeat IPC: 3.06631 cumulative IPC: 2.74891 (Simulation time: 0 hr 2 min 32 sec) 
Heartbeat CPU  2 instructions:   28000000 cycles:   10295778 heartbeat IPC: 2.60560 cumulative IPC: 2.71956 (Simulation time: 0 hr 2 min 34 sec) 
Heartbeat CPU  1 instructions:   25000003 cycles:   10383814 heartbeat IPC: 3.22069 cumulative IPC: 2.40759 (Simulation time: 0 hr 2 min 35 sec) 
Heartbeat CPU  0 instructions:   26000000 cycles:   10511105 heartbeat IPC: 2.10346 cumulative IPC: 2.47357 (Simulation time: 0 hr 2 min 37 sec) 
Heartbeat CPU  3 instructions:   29000003 cycles:   10565777 heartbeat IPC: 2.63211 cumulative IPC: 2.74471 (Simulation time: 0 hr 2 min 37 sec) 
Heartbeat CPU  2 instructions:   29000003 cycles:   10629054 heartbeat IPC: 3.00052 cumulative IPC: 2.72837 (Simulation time: 0 hr 2 min 38 sec) 
Heartbeat CPU  0 instructions:   27000001 cycles:   10843177 heartbeat IPC: 3.01140 cumulative IPC: 2.49005 (Simulation time: 0 hr 2 min 42 sec) 
Heartbeat CPU  1 instructions:   26000002 cycles:   10855202 heartbeat IPC: 2.12139 cumulative IPC: 2.39517 (Simulation time: 0 hr 2 min 42 sec) 
Heartbeat CPU  2 instructions:   30000000 cycles:   10956374 heartbeat IPC: 3.05511 cumulative IPC: 2.73813 (Simulation time: 0 hr 2 min 44 sec) 
Heartbeat CPU  3 instructions:   30000000 cycles:   10976063 heartbeat IPC: 2.43732 cumulative IPC: 2.73322 (Simulation time: 0 hr 2 min 44 sec) 
Heartbeat CPU  0 instructions:   28000000 cycles:   11172903 heartbeat IPC: 3.03282 cumulative IPC: 2.50606 (Simulation time: 0 hr 2 min 47 sec) 
Heartbeat CPU  1 instructions:   27000001 cycles:   11177034 heartbeat IPC: 3.10721 cumulative IPC: 2.41567 (Simulation time: 0 hr 2 min 47 sec) 
Heartbeat CPU  2 instructions:   31000001 cycles:   11281558 heartbeat IPC: 3.07519 cumulative IPC: 2.74785 (Simulation time: 0 hr 2 min 49 sec) 
Heartbeat CPU  3 instructions:   31000002 cycles:   11302528 heartbeat IPC: 3.06312 cumulative IPC: 2.74275 (Simulation time: 0 hr 2 min 49 sec) 
Heartbeat CPU  0 instructions:   29000003 cycles:   11502072 heartbeat IPC: 3.03796 cumulative IPC: 2.52129 (Simulation time: 0 hr 2 min 53 sec) 
Heartbeat CPU  3 instructions:   32000000 cycles:   11629673 heartbeat IPC: 3.05674 cumulative IPC: 2.75158 (Simulation time: 0 hr 2 min 55 sec) 
Heartbeat CPU  2 instructions:   32000000 cycles:   11641425 heartbeat IPC: 2.77880 cumulative IPC: 2.74880 (Simulation time: 0 hr 2 min 55 sec) 
Heartbeat CPU  1 instructions:   28000000 cycles:   11748301 heartbeat IPC: 1.75049 cumulative IPC: 2.38332 (Simulation time: 0 hr 2 min 57 sec) 
Heartbeat CPU  0 instructions:   30000001 cycles:   11837893 heartbeat IPC: 2.97777 cumulative IPC: 2.53423 (Simulation time: 0 hr 2 min 58 sec) 
Heartbeat CPU  2 instructions:   33000001 cycles:   11966835 heartbeat IPC: 3.07305 cumulative IPC: 2.75762 (Simulation time: 0 hr 3 min 0 sec) 
Heartbeat CPU  3 instructions:   33000000 cycles:   12017994 heartbeat IPC: 2.57519 cumulative IPC: 2.74588 (Simulation time: 0 hr 3 min 1 sec) 
Heartbeat CPU  1 instructions:   29000002 cycles:   12186090 heartbeat IPC: 2.28421 cumulative IPC: 2.37976 (Simulation time: 0 hr 3 min 4 sec) 
Heartbeat CPU  0 instructions:   31000003 cycles:   12232932 heartbeat IPC: 2.53140 cumulative IPC: 2.53414 (Simulation time: 0 hr 3 min 4 sec) 
Heartbeat CPU  2 instructions:   34000000 cycles:   12315353 heartbeat IPC: 2.86929 cumulative IPC: 2.76078 (Simulation time: 0 hr 3 min 5 sec) 
Heartbeat CPU  3 instructions:   34000000 cycles:   12494726 heartbeat IPC: 2.09761 cumulative IPC: 2.72115 (Simulation time: 0 hr 3 min 8 sec) 
Heartbeat CPU  0 instructions:   32000000 cycles:   12561241 heartbeat IPC: 3.04590 cumulative IPC: 2.54752 (Simulation time: 0 hr 3 min 10 sec) 
Heartbeat CPU  1 instructions:   30000002 cycles:   12586788 heartbeat IPC: 2.49565 cumulative IPC: 2.38345 (Simulation time: 0 hr 3 min 10 sec) 
Heartbeat CPU  2 instructions:   35000000 cycles:   12638443 heartbeat IPC: 3.09511 cumulative IPC: 2.76933 (Simulation time: 0 hr 3 min 11 sec) 
Heartbeat CPU  0 instructions:   33000003 cycles:   12884755 heartbeat IPC: 3.09107 cumulative IPC: 2.56117 (Simulation time: 0 hr 3 min 15 sec) 
Heartbeat CPU  3 instructions:   35000003 cycles:   12885605 heartbeat IPC: 2.55834 cumulative IPC: 2.71621 (Simulation time: 0 hr 3 min 15 sec) 
Heartbeat CPU  2 instructions:   36000000 cycles:   13002504 heartbeat IPC: 2.74679 cumulative IPC: 2.76870 (Simulation time: 0 hr 3 min 17 sec) 
Heartbeat CPU  1 instructions:   31000000 cycles:   13061233 heartbeat IPC: 2.10772 cumulative IPC: 2.37344 (Simulation time: 0 hr 3 min 17 sec) 
Heartbeat CPU  3 instructions:   36000000 cycles:   13211025 heartbeat IPC: 3.07294 cumulative IPC: 2.72500 (Simulation time: 0 hr 3 min 19 sec) 
Heartbeat CPU  0 instructions:   34000000 cycles:   13479641 heartbeat IPC: 1.68099 cumulative IPC: 2.52232 (Simulation time: 0 hr 3 min 21 sec) 
Heartbeat CPU  3 instructions:   37000000 cycles:   13542969 heartbeat IPC: 3.01256 cumulative IPC: 2.73204 (Simulation time: 0 hr 3 min 22 sec) 
Heartbeat CPU  2 instructions:   37000002 cycles:   13693142 heartbeat IPC: 1.44794 cumulative IPC: 2.70208 (Simulation time: 0 hr 3 min 24 sec) 
Heartbeat CPU  1 instructions:   32000000 cycles:   13721935 heartbeat IPC: 1.51354 cumulative IPC: 2.33203 (Simulation time: 0 hr 3 min 24 sec) 
Heartbeat CPU  3 instructions:   38000002 cycles:   13867726 heartbeat IPC: 3.07923 cumulative IPC: 2.74018 (Simulation time: 0 hr 3 min 27 sec) 
Heartbeat CPU  2 instructions:   38000002 cycles:   14049556 heartbeat IPC: 2.80573 cumulative IPC: 2.70471 (Simulation time: 0 hr 3 min 29 sec) 
Heartbeat CPU  0 instructions:   35000001 cycles:   14091771 heartbeat IPC: 1.63364 cumulative IPC: 2.48372 (Simulation time: 0 hr 3 min 30 sec) 
Heartbeat CPU  1 instructions:   33000000 cycles:   14108124 heartbeat IPC: 2.58941 cumulative IPC: 2.33908 (Simulation time: 0 hr 3 min 30 sec) 
Heartbeat CPU  3 instructions:   39000001 cycles:   14192212 heartbeat IPC: 3.08179 cumulative IPC: 2.74799 (Simulation time: 0 hr 3 min 31 sec) 
Heartbeat CPU  2 instructions:   39000002 cycles:   14377230 heartbeat IPC: 3.05181 cumulative IPC: 2.71262 (Simulation time: 0 hr 3 min 33 sec) 
Heartbeat CPU  3 instructions:   40000000 cycles:   14512245 heartbeat IPC: 3.12467 cumulative IPC: 2.75629 (Simulation time: 0 hr 3 min 35 sec) 
Heartbeat CPU  2 instructions:   40000000 cycles:   14705873 heartbeat IPC: 3.04281 cumulative IPC: 2.72000 (Simulation time: 0 hr 3 min 37 sec) 
Heartbeat CPU  1 instructions:   34000000 cycles:   14738962 heartbeat IPC: 1.58519 cumulative IPC: 2.30681 (Simulation time: 0 hr 3 min 38 sec) 
Heartbeat CPU  3 instructions:   41000001 cycles:   14844442 heartbeat IPC: 3.01027 cumulative IPC: 2.76198 (Simulation time: 0 hr 3 min 39 sec) 
Heartbeat CPU  0 instructions:   36000000 cycles:   14974502 heartbeat IPC: 1.13285 cumulative IPC: 2.40409 (Simulation time: 0 hr 3 min 41 sec) 
Heartbeat CPU  2 instructions:   41000000 cycles:   15034454 heartbeat IPC: 3.04339 cumulative IPC: 2.72707 (Simulation time: 0 hr 3 min 42 sec) 
Heartbeat CPU  3 instructions:   42000000 cycles:   15366612 heartbeat IPC: 1.91508 cumulative IPC: 2.73320 (Simulation time: 0 hr 3 min 45 sec) 
Heartbeat CPU  1 instructions:   35000000 cycles:   15386450 heartbeat IPC: 1.54443 cumulative IPC: 2.27473 (Simulation time: 0 hr 3 min 45 sec) 
Heartbeat CPU  2 instructions:   42000000 cycles:   15487067 heartbeat IPC: 2.20939 cumulative IPC: 2.71194 (Simulation time: 0 hr 3 min 46 sec) 
Heartbeat CPU  0 instructions:   37000001 cycles:   15709623 heartbeat IPC: 1.36032 cumulative IPC: 2.35524 (Simulation time: 0 hr 3 min 48 sec) 
Heartbeat CPU  3 instructions:   43000000 cycles:   15843923 heartbeat IPC: 2.09507 cumulative IPC: 2.71397 (Simulation time: 0 hr 3 min 49 sec) 
Heartbeat CPU  2 instructions:   43000001 cycles:   16046266 heartbeat IPC: 1.78827 cumulative IPC: 2.67975 (Simulation time: 0 hr 3 min 52 sec) 
Heartbeat CPU  0 instructions:   38000002 cycles:   16120196 heartbeat IPC: 2.43562 cumulative IPC: 2.35729 (Simulation time: 0 hr 3 min 52 sec) 
Heartbeat CPU  3 instructions:   44000000 cycles:   16305913 heartbeat IPC: 2.16455 cumulative IPC: 2.69841 (Simulation time: 0 hr 3 min 54 sec) 
Heartbeat CPU  1 instructions:   36000000 cycles:   16380917 heartbeat IPC: 1.00556 cumulative IPC: 2.19768 (Simulation time: 0 hr 3 min 55 sec) 
Heartbeat CPU  0 instructions:   39000000 cycles:   16535095 heartbeat IPC: 2.41022 cumulative IPC: 2.35862 (Simulation time: 0 hr 3 min 56 sec) 
Heartbeat CPU  2 instructions:   44000000 cycles:   16796718 heartbeat IPC: 1.33253 cumulative IPC: 2.61956 (Simulation time: 0 hr 3 min 59 sec) 
Heartbeat CPU  3 instructions:   45000001 cycles:   16891032 heartbeat IPC: 1.70906 cumulative IPC: 2.66414 (Simulation time: 0 hr 4 min 0 sec) 
Heartbeat CPU  1 instructions:   37000001 cycles:   16939093 heartbeat IPC: 1.79155 cumulative IPC: 2.18430 (Simulation time: 0 hr 4 min 1 sec) 
Heartbeat CPU  0 instructions:   40000000 cycles:   17064493 heartbeat IPC: 1.88894 cumulative IPC: 2.34405 (Simulation time: 0 hr 4 min 3 sec) 
Heartbeat CPU  2 instructions:   45000001 cycles:   17126228 heartbeat IPC: 3.03481 cumulative IPC: 2.62755 (Simulation time: 0 hr 4 min 4 sec) 
Heartbeat CPU  3 instructions:   46000001 cycles:   17215732 heartbeat IPC: 3.07977 cumulative IPC: 2.67197 (Simulation time: 0 hr 4 min 5 sec) 
Heartbeat CPU  0 instructions:   41000000 cycles:   17388514 heartbeat IPC: 3.08622 cumulative IPC: 2.35788 (Simulation time: 0 hr 4 min 7 sec) 
Heartbeat CPU  2 instructions:   46000003 cycles:   17526917 heartbeat IPC: 2.49571 cumulative IPC: 2.62453 (Simulation time: 0 hr 4 min 9 sec) 
Heartbeat CPU  3 instructions:   47000003 cycles:   17552111 heartbeat IPC: 2.97284 cumulative IPC: 2.67774 (Simulation time: 0 hr 4 min 9 sec) 
Heartbeat CPU  0 instructions:   42000000 cycles:   17751604 heartbeat IPC: 2.75414 cumulative IPC: 2.36598 (Simulation time: 0 hr 4 min 12 sec) 
Heartbeat CPU  1 instructions:   38000001 cycles:   17866915 heartbeat IPC: 1.07779 cumulative IPC: 2.12684 (Simulation time: 0 hr 4 min 13 sec) 
Heartbeat CPU  2 instructions:   47000000 cycles:   17926492 heartbeat IPC: 2.50265 cumulative IPC: 2.62182 (Simulation time: 0 hr 4 min 14 sec) 
Heartbeat CPU  3 instructions:   48000000 cycles:   17933560 heartbeat IPC: 2.62157 cumulative IPC: 2.67655 (Simulation time: 0 hr 4 min 14 sec) 
Heartbeat CPU  3 instructions:   49000003 cycles:   18260839 heartbeat IPC: 3.05551 cumulative IPC: 2.68334 (Simulation time: 0 hr 4 min 17 sec) 
Heartbeat CPU  2 instructions:   48000000 cycles:   18280141 heartbeat IPC: 2.82766 cumulative IPC: 2.62580 (Simulation time: 0 hr 4 min 18 sec) 
Heartbeat CPU  0 instructions:   43000000 cycles:   18576965 heartbeat IPC: 1.21159 cumulative IPC: 2.31469 (Simulation time: 0 hr 4 min 21 sec) 
Heartbeat CPU  3 instructions:   50000002 cycles:   18583958 heartbeat IPC: 3.09483 cumulative IPC: 2.69049 (Simulation time: 0 hr 4 min 21 sec) 
Heartbeat CPU  2 instructions:   49000003 cycles:   18606762 heartbeat IPC: 3.06166 cumulative IPC: 2.63345 (Simulation time: 0 hr 4 min 22 sec) 
Heartbeat CPU  1 instructions:   39000000 cycles:   18660762 heartbeat IPC: 1.25969 cumulative IPC: 2.08995 (Simulation time: 0 hr 4 min 23 sec) 
Heartbeat CPU  3 instructions:   51000001 cycles:   18902441 heartbeat IPC: 3.13988 cumulative IPC: 0.05290 (Simulation time: 0 hr 4 min 26 sec) 
Heartbeat CPU  2 instructions:   50000001 cycles:   18941644 heartbeat IPC: 2.98612 cumulative IPC: 2.63969 (Simulation time: 0 hr 4 min 26 sec) 
Heartbeat CPU  1 instructions:   40000000 cycles:   19207287 heartbeat IPC: 1.82974 cumulative IPC: 2.08254 (Simulation time: 0 hr 4 min 30 sec) 
Heartbeat CPU  3 instructions:   52000000 cycles:   19227893 heartbeat IPC: 3.07265 cumulative IPC: 0.10402 (Simulation time: 0 hr 4 min 30 sec) 
Heartbeat CPU  0 instructions:   44000000 cycles:   19272492 heartbeat IPC: 1.43776 cumulative IPC: 2.28305 (Simulation time: 0 hr 4 min 31 sec) 
Heartbeat CPU  2 instructions:   51000000 cycles:   19314573 heartbeat IPC: 2.68147 cumulative IPC: 0.05177 (Simulation time: 0 hr 4 min 31 sec) 
Heartbeat CPU  1 instructions:   41000000 cycles:   19540654 heartbeat IPC: 2.99970 cumulative IPC: 2.09819 (Simulation time: 0 hr 4 min 35 sec) 
Heartbeat CPU  3 instructions:   53000000 cycles:   19553966 heartbeat IPC: 3.06680 cumulative IPC: 0.15342 (Simulation time: 0 hr 4 min 35 sec) 
Heartbeat CPU  2 instructions:   52000000 cycles:   19640709 heartbeat IPC: 3.06621 cumulative IPC: 0.10183 (Simulation time: 0 hr 4 min 37 sec) 
Heartbeat CPU  1 instructions:   42000001 cycles:   19900334 heartbeat IPC: 2.78025 cumulative IPC: 2.11052 (Simulation time: 0 hr 4 min 40 sec) 
Heartbeat CPU  3 instructions:   54000001 cycles:   19917406 heartbeat IPC: 2.75149 cumulative IPC: 0.20083 (Simulation time: 0 hr 4 min 41 sec) 
Heartbeat CPU  0 instructions:   45000003 cycles:   19953990 heartbeat IPC: 1.46736 cumulative IPC: 2.25519 (Simulation time: 0 hr 4 min 41 sec) 
Heartbeat CPU  2 instructions:   53000002 cycles:   19966302 heartbeat IPC: 3.07133 cumulative IPC: 0.15025 (Simulation time: 0 hr 4 min 41 sec) 
Heartbeat CPU  3 instructions:   55000000 cycles:   20344557 heartbeat IPC: 2.34109 cumulative IPC: 0.24577 (Simulation time: 0 hr 4 min 45 sec) 
Heartbeat CPU  2 instructions:   54000000 cycles:   20381692 heartbeat IPC: 2.40737 cumulative IPC: 0.19625 (Simulation time: 0 hr 4 min 46 sec) 
Heartbeat CPU  0 instructions:   46000001 cycles:   20456751 heartbeat IPC: 1.98901 cumulative IPC: 2.24865 (Simulation time: 0 hr 4 min 47 sec) 
Heartbeat CPU  0 instructions:   47000001 cycles:   20838253 heartbeat IPC: 2.62122 cumulative IPC: 2.25547 (Simulation time: 0 hr 4 min 50 sec) 
Heartbeat CPU  1 instructions:   43000000 cycles:   20844812 heartbeat IPC: 1.05878 cumulative IPC: 2.06286 (Simulation time: 0 hr 4 min 51 sec) 
Heartbeat CPU  2 instructions:   55000003 cycles:   20963004 heartbeat IPC: 1.72025 cumulative IPC: 0.23852 (Simulation time: 0 hr 4 min 52 sec) 
Heartbeat CPU  3 instructions:   56000000 cycles:   21034215 heartbeat IPC: 1.44999 cumulative IPC: 0.28525 (Simulation time: 0 hr 4 min 52 sec) 
Heartbeat CPU  0 instructions:   48000000 cycles:   21251620 heartbeat IPC: 2.41916 cumulative IPC: 2.25865 (Simulation time: 0 hr 4 min 55 sec) 
Heartbeat CPU  3 instructions:   57000000 cycles:   21444875 heartbeat IPC: 2.43510 cumulative IPC: 0.32642 (Simulation time: 0 hr 4 min 57 sec) 
Heartbeat CPU  1 instructions:   44000000 cycles:   21486378 heartbeat IPC: 1.55869 cumulative IPC: 2.04781 (Simulation time: 0 hr 4 min 58 sec) 
Heartbeat CPU  2 instructions:   56000000 cycles:   21507050 heartbeat IPC: 1.83807 cumulative IPC: 0.27898 (Simulation time: 0 hr 4 min 58 sec) 
Heartbeat CPU  0 instructions:   49000003 cycles:   21578324 heartbeat IPC: 3.06088 cumulative IPC: 2.27080 (Simulation time: 0 hr 4 min 59 sec) 
Heartbeat CPU  2 instructions:   57000001 cycles:   21886602 heartbeat IPC: 2.63469 cumulative IPC: 0.31983 (Simulation time: 0 hr 5 min 3 sec) 
Heartbeat CPU  3 instructions:   58000000 cycles:   21997920 heartbeat IPC: 1.80817 cumulative IPC: 0.36367 (Simulation time: 0 hr 5 min 4 sec) 
Heartbeat CPU  0 instructions:   50000000 cycles:   22049754 heartbeat IPC: 2.12120 cumulative IPC: 2.26760 (Simulation time: 0 hr 5 min 5 sec) 
Heartbeat CPU  1 instructions:   45000003 cycles:   22283296 heartbeat IPC: 1.25484 cumulative IPC: 2.01945 (Simulation time: 0 hr 5 min 7 sec) 
Heartbeat CPU  2 instructions:   58000001 cycles:   22458312 heartbeat IPC: 1.74914 cumulative IPC: 0.35622 (Simulation time: 0 hr 5 min 9 sec) 
Heartbeat CPU  0 instructions:   51000000 cycles:   22477288 heartbeat IPC: 2.33900 cumulative IPC: 0.04449 (Simulation time: 0 hr 5 min 9 sec) 
Heartbeat CPU  3 instructions:   59000000 cycles:   22627879 heartbeat IPC: 1.58740 cumulative IPC: 0.39774 (Simulation time: 0 hr 5 min 11 sec) 
Heartbeat CPU  0 instructions:   52000000 cycles:   22801265 heartbeat IPC: 3.08664 cumulative IPC: 0.08771 (Simulation time: 0 hr 5 min 13 sec) 
Heartbeat CPU  1 instructions:   46000001 cycles:   22938117 heartbeat IPC: 1.52713 cumulative IPC: 2.00540 (Simulation time: 0 hr 5 min 15 sec) 
Heartbeat CPU  2 instructions:   59000002 cycles:   23087154 heartbeat IPC: 1.59023 cumulative IPC: 0.38983 (Simulation time: 0 hr 5 min 17 sec) 
Heartbeat CPU  0 instructions:   53000002 cycles:   23124410 heartbeat IPC: 3.09459 cumulative IPC: 0.12973 (Simulation time: 0 hr 5 min 18 sec) 
Heartbeat CPU  3 instructions:   60000000 cycles:   23135672 heartbeat IPC: 1.96931 cumulative IPC: 0.43223 (Simulation time: 0 hr 5 min 18 sec) 
Heartbeat CPU  1 instructions:   47000003 cycles:   23266987 heartbeat IPC: 3.04072 cumulative IPC: 2.02003 (Simulation time: 0 hr 5 min 19 sec) 
Heartbeat CPU  0 instructions:   54000000 cycles:   23545658 heartbeat IPC: 2.37389 cumulative IPC: 0.16988 (Simulation time: 0 hr 5 min 23 sec) 
Heartbeat CPU  1 instructions:   48000000 cycles:   23597079 heartbeat IPC: 3.02945 cumulative IPC: 2.03415 (Simulation time: 0 hr 5 min 24 sec) 
Heartbeat CPU  2 instructions:   60000000 cycles:   23607759 heartbeat IPC: 1.92084 cumulative IPC: 0.42359 (Simulation time: 0 hr 5 min 24 sec) 
Heartbeat CPU  3 instructions:   61000002 cycles:   23663513 heartbeat IPC: 1.89451 cumulative IPC: 0.46485 (Simulation time: 0 hr 5 min 25 sec) 
Heartbeat CPU  0 instructions:   55000001 cycles:   23905652 heartbeat IPC: 2.77783 cumulative IPC: 0.20916 (Simulation time: 0 hr 5 min 28 sec) 
Heartbeat CPU  1 instructions:   49000003 cycles:   23921490 heartbeat IPC: 3.08252 cumulative IPC: 2.04837 (Simulation time: 0 hr 5 min 29 sec) 
Heartbeat CPU  2 instructions:   61000002 cycles:   24152366 heartbeat IPC: 1.83619 cumulative IPC: 0.45544 (Simulation time: 0 hr 5 min 31 sec) 
Heartbeat CPU  1 instructions:   50000002 cycles:   24245389 heartbeat IPC: 3.08738 cumulative IPC: 2.06225 (Simulation time: 0 hr 5 min 33 sec) 

Warmup complete CPU  0 instructions:   55769716 cycles:   24245388 (Simulation time: 0 hr 5 min 33 sec) 
Warmup complete CPU  1 instructions:   50000002 cycles:   24245389 (Simulation time: 0 hr 5 min 33 sec) 
Warmup complete CPU  2 instructions:   61184747 cycles:   24245388 (Simulation time: 0 hr 5 min 33 sec) 
Warmup complete CPU  3 instructions:   61855052 cycles:   24245388 (Simulation time: 0 hr 5 min 33 sec) 

Heartbeat CPU  3 instructions:   62000000 cycles:   24533184 heartbeat IPC: 1.14986 cumulative IPC: 0.50365 (Simulation time: 0 hr 5 min 33 sec) 
Heartbeat CPU  0 instructions:   56000000 cycles:   24896037 heartbeat IPC: 1.00971 cumulative IPC: 0.35393 (Simulation time: 0 hr 5 min 34 sec) 
Heartbeat CPU  2 instructions:   62000002 cycles:   26771816 heartbeat IPC: 0.38176 cumulative IPC: 0.32269 (Simulation time: 0 hr 5 min 39 sec) 
Heartbeat CPU  0 instructions:   57000000 cycles:   27620064 heartbeat IPC: 0.36710 cumulative IPC: 0.36456 (Simulation time: 0 hr 5 min 41 sec) 
Heartbeat CPU  1 instructions:   51000003 cycles:   28141110 heartbeat IPC: 0.25669 cumulative IPC: 0.25669 (Simulation time: 0 hr 5 min 42 sec) 
Heartbeat CPU  3 instructions:   63000000 cycles:   28521635 heartbeat IPC: 0.25072 cumulative IPC: 0.26775 (Simulation time: 0 hr 5 min 43 sec) 
Heartbeat CPU  1 instructions:   52000000 cycles:   30392114 heartbeat IPC: 0.44424 cumulative IPC: 0.32538 (Simulation time: 0 hr 5 min 47 sec) 
Heartbeat CPU  0 instructions:   58000002 cycles:   30503847 heartbeat IPC: 0.34677 cumulative IPC: 0.35636 (Simulation time: 0 hr 5 min 48 sec) 
Heartbeat CPU  2 instructions:   63000000 cycles:   30960556 heartbeat IPC: 0.23873 cumulative IPC: 0.27032 (Simulation time: 0 hr 5 min 50 sec) 
Heartbeat CPU  0 instructions:   59000002 cycles:   32879015 heartbeat IPC: 0.42102 cumulative IPC: 0.37415 (Simulation time: 0 hr 5 min 54 sec) 
Heartbeat CPU  1 instructions:   53000003 cycles:   32923736 heartbeat IPC: 0.39500 cumulative IPC: 0.34569 (Simulation time: 0 hr 5 min 54 sec) 
Heartbeat CPU  3 instructions:   64000000 cycles:   36014035 heartbeat IPC: 0.13347 cumulative IPC: 0.18226 (Simulation time: 0 hr 6 min 0 sec) 
Heartbeat CPU  2 instructions:   64000000 cycles:   36043277 heartbeat IPC: 0.19675 cumulative IPC: 0.23862 (Simulation time: 0 hr 6 min 0 sec) 
Heartbeat CPU  1 instructions:   54000003 cycles:   36402539 heartbeat IPC: 0.28746 cumulative IPC: 0.32902 (Simulation time: 0 hr 6 min 1 sec) 
Heartbeat CPU  0 instructions:   60000000 cycles:   38069653 heartbeat IPC: 0.19265 cumulative IPC: 0.30600 (Simulation time: 0 hr 6 min 4 sec) 
Heartbeat CPU  1 instructions:   55000003 cycles:   39325294 heartbeat IPC: 0.34214 cumulative IPC: 0.33157 (Simulation time: 0 hr 6 min 6 sec) 
Heartbeat CPU  3 instructions:   65000000 cycles:   41220515 heartbeat IPC: 0.19207 cumulative IPC: 0.18527 (Simulation time: 0 hr 6 min 10 sec) 
Heartbeat CPU  2 instructions:   65000002 cycles:   41906301 heartbeat IPC: 0.17056 cumulative IPC: 0.21603 (Simulation time: 0 hr 6 min 12 sec) 
Heartbeat CPU  0 instructions:   61000003 cycles:   42969550 heartbeat IPC: 0.20409 cumulative IPC: 0.27933 (Simulation time: 0 hr 6 min 14 sec) 
Heartbeat CPU  1 instructions:   56000000 cycles:   43463283 heartbeat IPC: 0.24166 cumulative IPC: 0.31221 (Simulation time: 0 hr 6 min 15 sec) 
Heartbeat CPU  1 instructions:   57000001 cycles:   45995589 heartbeat IPC: 0.39490 cumulative IPC: 0.32184 (Simulation time: 0 hr 6 min 21 sec) 
Heartbeat CPU  3 instructions:   66000000 cycles:   46250614 heartbeat IPC: 0.19880 cumulative IPC: 0.18836 (Simulation time: 0 hr 6 min 21 sec) 
Heartbeat CPU  0 instructions:   62000001 cycles:   46848192 heartbeat IPC: 0.25782 cumulative IPC: 0.27564 (Simulation time: 0 hr 6 min 23 sec) 
Heartbeat CPU  2 instructions:   66000002 cycles:   47518266 heartbeat IPC: 0.17819 cumulative IPC: 0.20690 (Simulation time: 0 hr 6 min 24 sec) 
Heartbeat CPU  1 instructions:   58000002 cycles:   49617305 heartbeat IPC: 0.27611 cumulative IPC: 0.31531 (Simulation time: 0 hr 6 min 30 sec) 
Heartbeat CPU  0 instructions:   63000000 cycles:   50178141 heartbeat IPC: 0.30030 cumulative IPC: 0.27881 (Simulation time: 0 hr 6 min 31 sec) 
Heartbeat CPU  3 instructions:   67000000 cycles:   51836428 heartbeat IPC: 0.17902 cumulative IPC: 0.18647 (Simulation time: 0 hr 6 min 35 sec) 
Heartbeat CPU  2 instructions:   67000002 cycles:   53586374 heartbeat IPC: 0.16480 cumulative IPC: 0.19820 (Simulation time: 0 hr 6 min 39 sec) 
Heartbeat CPU  0 instructions:   64000000 cycles:   54239140 heartbeat IPC: 0.24624 cumulative IPC: 0.27440 (Simulation time: 0 hr 6 min 40 sec) 
Heartbeat CPU  1 instructions:   59000001 cycles:   54502823 heartbeat IPC: 0.20469 cumulative IPC: 0.29745 (Simulation time: 0 hr 6 min 41 sec) 
Heartbeat CPU  3 instructions:   68000000 cycles:   58723466 heartbeat IPC: 0.14520 cumulative IPC: 0.17823 (Simulation time: 0 hr 6 min 47 sec) 
Heartbeat CPU  2 instructions:   68000000 cycles:   58979397 heartbeat IPC: 0.18542 cumulative IPC: 0.19621 (Simulation time: 0 hr 6 min 48 sec) 
Heartbeat CPU  1 instructions:   60000000 cycles:   59831303 heartbeat IPC: 0.18767 cumulative IPC: 0.28101 (Simulation time: 0 hr 6 min 49 sec) 
Heartbeat CPU  0 instructions:   65000000 cycles:   60223111 heartbeat IPC: 0.16711 cumulative IPC: 0.25656 (Simulation time: 0 hr 6 min 50 sec) 
Heartbeat CPU  0 instructions:   66000002 cycles:   64498522 heartbeat IPC: 0.23390 cumulative IPC: 0.25415 (Simulation time: 0 hr 6 min 58 sec) 
Heartbeat CPU  3 instructions:   69000000 cycles:   64583729 heartbeat IPC: 0.17064 cumulative IPC: 0.17713 (Simulation time: 0 hr 6 min 58 sec) 
Heartbeat CPU  1 instructions:   61000003 cycles:   64920322 heartbeat IPC: 0.19650 cumulative IPC: 0.27044 (Simulation time: 0 hr 6 min 59 sec) 
Heartbeat CPU  2 instructions:   69000000 cycles:   65055068 heartbeat IPC: 0.16459 cumulative IPC: 0.19150 (Simulation time: 0 hr 6 min 59 sec) 
Heartbeat CPU  1 instructions:   62000003 cycles:   68844522 heartbeat IPC: 0.25483 cumulative IPC: 0.26906 (Simulation time: 0 hr 7 min 7 sec) 
Heartbeat CPU  3 instructions:   70000001 cycles:   69742482 heartbeat IPC: 0.19385 cumulative IPC: 0.17902 (Simulation time: 0 hr 7 min 9 sec) 
Heartbeat CPU  0 instructions:   67000001 cycles:   69965579 heartbeat IPC: 0.18291 cumulative IPC: 0.24563 (Simulation time: 0 hr 7 min 9 sec) 
Heartbeat CPU  1 instructions:   63000002 cycles:   72511099 heartbeat IPC: 0.27273 cumulative IPC: 0.26934 (Simulation time: 0 hr 7 min 13 sec) 
Heartbeat CPU  2 instructions:   70000000 cycles:   73087686 heartbeat IPC: 0.12449 cumulative IPC: 0.18048 (Simulation time: 0 hr 7 min 14 sec) 
Heartbeat CPU  0 instructions:   68000000 cycles:   74493805 heartbeat IPC: 0.22084 cumulative IPC: 0.24340 (Simulation time: 0 hr 7 min 17 sec) 
Heartbeat CPU  3 instructions:   71000003 cycles:   76078644 heartbeat IPC: 0.15782 cumulative IPC: 0.17643 (Simulation time: 0 hr 7 min 19 sec) 
Heartbeat CPU  2 instructions:   71000003 cycles:   78372066 heartbeat IPC: 0.18924 cumulative IPC: 0.18134 (Simulation time: 0 hr 7 min 23 sec) 
Heartbeat CPU  0 instructions:   69000002 cycles:   78784834 heartbeat IPC: 0.23304 cumulative IPC: 0.24258 (Simulation time: 0 hr 7 min 24 sec) 
Heartbeat CPU  1 instructions:   64000000 cycles:   80617488 heartbeat IPC: 0.12336 cumulative IPC: 0.24835 (Simulation time: 0 hr 7 min 27 sec) 
Heartbeat CPU  3 instructions:   72000000 cycles:   82853910 heartbeat IPC: 0.14760 cumulative IPC: 0.17310 (Simulation time: 0 hr 7 min 31 sec) 
Heartbeat CPU  2 instructions:   72000000 cycles:   83840608 heartbeat IPC: 0.18286 cumulative IPC: 0.18148 (Simulation time: 0 hr 7 min 32 sec) 
Heartbeat CPU  0 instructions:   70000002 cycles:   84733314 heartbeat IPC: 0.16811 cumulative IPC: 0.23526 (Simulation time: 0 hr 7 min 34 sec) 
Heartbeat CPU  1 instructions:   65000002 cycles:   87523815 heartbeat IPC: 0.14480 cumulative IPC: 0.23705 (Simulation time: 0 hr 7 min 38 sec) 
Heartbeat CPU  2 instructions:   73000000 cycles:   88816068 heartbeat IPC: 0.20099 cumulative IPC: 0.18298 (Simulation time: 0 hr 7 min 40 sec) 
Heartbeat CPU  3 instructions:   73000000 cycles:   89114315 heartbeat IPC: 0.15973 cumulative IPC: 0.17181 (Simulation time: 0 hr 7 min 41 sec) 
Heartbeat CPU  0 instructions:   71000003 cycles:   91506953 heartbeat IPC: 0.14763 cumulative IPC: 0.22643 (Simulation time: 0 hr 7 min 44 sec) 
Heartbeat CPU  2 instructions:   74000003 cycles:   93226310 heartbeat IPC: 0.22675 cumulative IPC: 0.18578 (Simulation time: 0 hr 7 min 48 sec) 
Heartbeat CPU  1 instructions:   66000003 cycles:   93353895 heartbeat IPC: 0.17152 cumulative IPC: 0.23152 (Simulation time: 0 hr 7 min 48 sec) 
Heartbeat CPU  3 instructions:   74000001 cycles:   95824729 heartbeat IPC: 0.14902 cumulative IPC: 0.16967 (Simulation time: 0 hr 7 min 52 sec) 
Heartbeat CPU  2 instructions:   75000002 cycles:   97739463 heartbeat IPC: 0.22157 cumulative IPC: 0.18798 (Simulation time: 0 hr 7 min 55 sec) 
Heartbeat CPU  0 instructions:   72000000 cycles:   97949205 heartbeat IPC: 0.15522 cumulative IPC: 0.22021 (Simulation time: 0 hr 7 min 56 sec) 
Heartbeat CPU  1 instructions:   67000003 cycles:   99424740 heartbeat IPC: 0.16472 cumulative IPC: 0.22613 (Simulation time: 0 hr 7 min 59 sec) 
Heartbeat CPU  3 instructions:   75000002 cycles:  100790517 heartbeat IPC: 0.20138 cumulative IPC: 0.17173 (Simulation time: 0 hr 8 min 1 sec) 
Heartbeat CPU  2 instructions:   76000000 cycles:  101423227 heartbeat IPC: 0.27146 cumulative IPC: 0.19196 (Simulation time: 0 hr 8 min 3 sec) 
Heartbeat CPU  0 instructions:   73000001 cycles:  102993028 heartbeat IPC: 0.19826 cumulative IPC: 0.21880 (Simulation time: 0 hr 8 min 6 sec) 
Heartbeat CPU  3 instructions:   76000000 cycles:  103700471 heartbeat IPC: 0.34365 cumulative IPC: 0.17802 (Simulation time: 0 hr 8 min 8 sec) 
Heartbeat CPU  1 instructions:   68000000 cycles:  104586787 heartbeat IPC: 0.19372 cumulative IPC: 0.22404 (Simulation time: 0 hr 8 min 9 sec) 
Heartbeat CPU  2 instructions:   77000000 cycles:  105921949 heartbeat IPC: 0.22229 cumulative IPC: 0.19363 (Simulation time: 0 hr 8 min 12 sec) 
Heartbeat CPU  3 instructions:   77000001 cycles:  107482229 heartbeat IPC: 0.26443 cumulative IPC: 0.18195 (Simulation time: 0 hr 8 min 15 sec) 
Heartbeat CPU  0 instructions:   74000001 cycles:  108291956 heartbeat IPC: 0.18872 cumulative IPC: 0.21691 (Simulation time: 0 hr 8 min 16 sec) 
Heartbeat CPU  2 instructions:   78000002 cycles:  110596633 heartbeat IPC: 0.21392 cumulative IPC: 0.19473 (Simulation time: 0 hr 8 min 20 sec) 
Heartbeat CPU  1 instructions:   69000000 cycles:  111497647 heartbeat IPC: 0.14470 cumulative IPC: 0.21776 (Simulation time: 0 hr 8 min 22 sec) 
Heartbeat CPU  0 instructions:   75000001 cycles:  112037614 heartbeat IPC: 0.26698 cumulative IPC: 0.21904 (Simulation time: 0 hr 8 min 24 sec) 
Heartbeat CPU  2 instructions:   79000003 cycles:  112065320 heartbeat IPC: 0.68088 cumulative IPC: 0.20286 (Simulation time: 0 hr 8 min 24 sec) 
Heartbeat CPU  3 instructions:   78000003 cycles:  112592418 heartbeat IPC: 0.19569 cumulative IPC: 0.18274 (Simulation time: 0 hr 8 min 26 sec) 
Heartbeat CPU  2 instructions:   80000000 cycles:  112723677 heartbeat IPC: 1.51893 cumulative IPC: 0.21265 (Simulation time: 0 hr 8 min 27 sec) 
Heartbeat CPU  3 instructions:   79000002 cycles:  115292752 heartbeat IPC: 0.37032 cumulative IPC: 0.18831 (Simulation time: 0 hr 8 min 33 sec) 
Heartbeat CPU  2 instructions:   81000002 cycles:  115546507 heartbeat IPC: 0.35426 cumulative IPC: 0.21703 (Simulation time: 0 hr 8 min 35 sec) 
Heartbeat CPU  0 instructions:   76000000 cycles:  115806031 heartbeat IPC: 0.26536 cumulative IPC: 0.22095 (Simulation time: 0 hr 8 min 36 sec) 
Heartbeat CPU  3 instructions:   80000000 cycles:  115950188 heartbeat IPC: 1.52106 cumulative IPC: 0.19786 (Simulation time: 0 hr 8 min 36 sec) 
Heartbeat CPU  1 instructions:   70000000 cycles:  118171675 heartbeat IPC: 0.14983 cumulative IPC: 0.21293 (Simulation time: 0 hr 8 min 41 sec) 
Heartbeat CPU  2 instructions:   82000001 cycles:  119341552 heartbeat IPC: 0.26350 cumulative IPC: 0.21889 (Simulation time: 0 hr 8 min 44 sec) 
Heartbeat CPU  3 instructions:   81000002 cycles:  119612637 heartbeat IPC: 0.27304 cumulative IPC: 0.20075 (Simulation time: 0 hr 8 min 45 sec) 
Heartbeat CPU  0 instructions:   77000001 cycles:  120266773 heartbeat IPC: 0.22418 cumulative IPC: 0.22110 (Simulation time: 0 hr 8 min 46 sec) 
Heartbeat CPU  2 instructions:   83000002 cycles:  122119210 heartbeat IPC: 0.36002 cumulative IPC: 0.22289 (Simulation time: 0 hr 8 min 50 sec) 
Heartbeat CPU  3 instructions:   82000000 cycles:  122344647 heartbeat IPC: 0.36603 cumulative IPC: 0.20535 (Simulation time: 0 hr 8 min 51 sec) 
Heartbeat CPU  0 instructions:   78000000 cycles:  124809658 heartbeat IPC: 0.22012 cumulative IPC: 0.22106 (Simulation time: 0 hr 8 min 57 sec) 
Heartbeat CPU  2 instructions:   84000000 cycles:  124866792 heartbeat IPC: 0.36396 cumulative IPC: 0.22674 (Simulation time: 0 hr 8 min 57 sec) 
Heartbeat CPU  1 instructions:   71000002 cycles:  124949219 heartbeat IPC: 0.14755 cumulative IPC: 0.20853 (Simulation time: 0 hr 8 min 57 sec) 
Heartbeat CPU  3 instructions:   83000002 cycles:  125084681 heartbeat IPC: 0.36496 cumulative IPC: 0.20969 (Simulation time: 0 hr 8 min 58 sec) 
Heartbeat CPU  0 instructions:   79000002 cycles:  126365216 heartbeat IPC: 0.64286 cumulative IPC: 0.22748 (Simulation time: 0 hr 9 min 1 sec) 
Heartbeat CPU  0 instructions:   80000000 cycles:  127066578 heartbeat IPC: 1.42579 cumulative IPC: 0.23565 (Simulation time: 0 hr 9 min 4 sec) 
Heartbeat CPU  2 instructions:   85000000 cycles:  127966216 heartbeat IPC: 0.32264 cumulative IPC: 0.22961 (Simulation time: 0 hr 9 min 6 sec) 
Heartbeat CPU  3 instructions:   84000000 cycles:  128391398 heartbeat IPC: 0.30241 cumulative IPC: 0.21263 (Simulation time: 0 hr 9 min 7 sec) 
Heartbeat CPU  0 instructions:   81000002 cycles:  130537950 heartbeat IPC: 0.28807 cumulative IPC: 0.23737 (Simulation time: 0 hr 9 min 13 sec) 
Heartbeat CPU  2 instructions:   86000000 cycles:  130702294 heartbeat IPC: 0.36549 cumulative IPC: 0.23310 (Simulation time: 0 hr 9 min 13 sec) 
Heartbeat CPU  3 instructions:   85000002 cycles:  131252913 heartbeat IPC: 0.34947 cumulative IPC: 0.21629 (Simulation time: 0 hr 9 min 15 sec) 
Heartbeat CPU  1 instructions:   72000000 cycles:  132227932 heartbeat IPC: 0.13739 cumulative IPC: 0.20374 (Simulation time: 0 hr 9 min 17 sec) 
Heartbeat CPU  2 instructions:   87000002 cycles:  133457256 heartbeat IPC: 0.36298 cumulative IPC: 0.23638 (Simulation time: 0 hr 9 min 20 sec) 
Heartbeat CPU  0 instructions:   82000000 cycles:  133492986 heartbeat IPC: 0.33840 cumulative IPC: 0.24010 (Simulation time: 0 hr 9 min 20 sec) 
Heartbeat CPU  3 instructions:   86000002 cycles:  134136828 heartbeat IPC: 0.34675 cumulative IPC: 0.21972 (Simulation time: 0 hr 9 min 22 sec) 
Heartbeat CPU  2 instructions:   88000000 cycles:  136219176 heartbeat IPC: 0.36207 cumulative IPC: 0.23948 (Simulation time: 0 hr 9 min 27 sec) 
Heartbeat CPU  3 instructions:   87000002 cycles:  136978919 heartbeat IPC: 0.35185 cumulative IPC: 0.22305 (Simulation time: 0 hr 9 min 29 sec) 
Heartbeat CPU  0 instructions:   83000002 cycles:  137275346 heartbeat IPC: 0.26439 cumulative IPC: 0.24091 (Simulation time: 0 hr 9 min 29 sec) 
Heartbeat CPU  1 instructions:   73000001 cycles:  138074028 heartbeat IPC: 0.17105 cumulative IPC: 0.20206 (Simulation time: 0 hr 9 min 31 sec) 
Heartbeat CPU  2 instructions:   89000002 cycles:  139508272 heartbeat IPC: 0.30404 cumulative IPC: 0.24132 (Simulation time: 0 hr 9 min 35 sec) 
Heartbeat CPU  3 instructions:   88000000 cycles:  139786915 heartbeat IPC: 0.35613 cumulative IPC: 0.22628 (Simulation time: 0 hr 9 min 36 sec) 
Heartbeat CPU  0 instructions:   84000000 cycles:  140943764 heartbeat IPC: 0.27260 cumulative IPC: 0.24191 (Simulation time: 0 hr 9 min 39 sec) 
Heartbeat CPU  2 instructions:   90000000 cycles:  142146496 heartbeat IPC: 0.37904 cumulative IPC: 0.24440 (Simulation time: 0 hr 9 min 42 sec) 
Heartbeat CPU  3 instructions:   89000001 cycles:  142911635 heartbeat IPC: 0.32003 cumulative IPC: 0.22875 (Simulation time: 0 hr 9 min 44 sec) 
Heartbeat CPU  1 instructions:   74000002 cycles:  143262680 heartbeat IPC: 0.19273 cumulative IPC: 0.20165 (Simulation time: 0 hr 9 min 44 sec) 
Heartbeat CPU  2 instructions:   91000003 cycles:  144769902 heartbeat IPC: 0.38118 cumulative IPC: 0.24738 (Simulation time: 0 hr 9 min 48 sec) 
Heartbeat CPU  0 instructions:   85000000 cycles:  145210838 heartbeat IPC: 0.23435 cumulative IPC: 0.24164 (Simulation time: 0 hr 9 min 49 sec) 
Heartbeat CPU  3 instructions:   90000002 cycles:  146011698 heartbeat IPC: 0.32257 cumulative IPC: 0.23114 (Simulation time: 0 hr 9 min 51 sec) 
Heartbeat CPU  1 instructions:   75000003 cycles:  146893548 heartbeat IPC: 0.27542 cumulative IPC: 0.20384 (Simulation time: 0 hr 9 min 54 sec) 
Heartbeat CPU  2 instructions:   92000000 cycles:  147533309 heartbeat IPC: 0.36187 cumulative IPC: 0.24995 (Simulation time: 0 hr 9 min 56 sec) 
Heartbeat CPU  0 instructions:   86000000 cycles:  148149996 heartbeat IPC: 0.34023 cumulative IPC: 0.24398 (Simulation time: 0 hr 9 min 58 sec) 
Heartbeat CPU  3 instructions:   91000003 cycles:  148772151 heartbeat IPC: 0.36226 cumulative IPC: 0.23405 (Simulation time: 0 hr 9 min 59 sec) 
Heartbeat CPU  2 instructions:   93000001 cycles:  150634343 heartbeat IPC: 0.32247 cumulative IPC: 0.25172 (Simulation time: 0 hr 10 min 4 sec) 
Heartbeat CPU  1 instructions:   76000000 cycles:  150922531 heartbeat IPC: 0.24820 cumulative IPC: 0.20525 (Simulation time: 0 hr 10 min 5 sec) 
Heartbeat CPU  0 instructions:   87000003 cycles:  150932867 heartbeat IPC: 0.35934 cumulative IPC: 0.24651 (Simulation time: 0 hr 10 min 5 sec) 
Heartbeat CPU  3 instructions:   92000000 cycles:  151803782 heartbeat IPC: 0.32985 cumulative IPC: 0.23632 (Simulation time: 0 hr 10 min 7 sec) 
Heartbeat CPU  2 instructions:   94000003 cycles:  153389513 heartbeat IPC: 0.36295 cumulative IPC: 0.25410 (Simulation time: 0 hr 10 min 11 sec) 
Heartbeat CPU  0 instructions:   88000000 cycles:  154253472 heartbeat IPC: 0.30115 cumulative IPC: 0.24791 (Simulation time: 0 hr 10 min 14 sec) 
Heartbeat CPU  3 instructions:   93000001 cycles:  154426222 heartbeat IPC: 0.38132 cumulative IPC: 0.23924 (Simulation time: 0 hr 10 min 14 sec) 
Heartbeat CPU  1 instructions:   77000002 cycles:  155723797 heartbeat IPC: 0.20828 cumulative IPC: 0.20536 (Simulation time: 0 hr 10 min 17 sec) 
Heartbeat CPU  2 instructions:   95000003 cycles:  155902970 heartbeat IPC: 0.39786 cumulative IPC: 0.25684 (Simulation time: 0 hr 10 min 18 sec) 
Heartbeat CPU  3 instructions:   94000003 cycles:  157274281 heartbeat IPC: 0.35112 cumulative IPC: 0.24164 (Simulation time: 0 hr 10 min 22 sec) 
Heartbeat CPU  0 instructions:   89000000 cycles:  157576661 heartbeat IPC: 0.30092 cumulative IPC: 0.24923 (Simulation time: 0 hr 10 min 22 sec) 
Heartbeat CPU  2 instructions:   96000000 cycles:  158334456 heartbeat IPC: 0.41127 cumulative IPC: 0.25964 (Simulation time: 0 hr 10 min 25 sec) 
Heartbeat CPU  3 instructions:   95000000 cycles:  160360676 heartbeat IPC: 0.32400 cumulative IPC: 0.24351 (Simulation time: 0 hr 10 min 30 sec) 
Heartbeat CPU  0 instructions:   90000002 cycles:  160415469 heartbeat IPC: 0.35226 cumulative IPC: 0.25138 (Simulation time: 0 hr 10 min 30 sec) 
Heartbeat CPU  1 instructions:   78000000 cycles:  160611547 heartbeat IPC: 0.20459 cumulative IPC: 0.20533 (Simulation time: 0 hr 10 min 31 sec) 
Heartbeat CPU  2 instructions:   97000001 cycles:  160880044 heartbeat IPC: 0.39284 cumulative IPC: 0.26212 (Simulation time: 0 hr 10 min 31 sec) 
Heartbeat CPU  3 instructions:   96000000 cycles:  163137119 heartbeat IPC: 0.36017 cumulative IPC: 0.24584 (Simulation time: 0 hr 10 min 39 sec) 
Heartbeat CPU  0 instructions:   91000003 cycles:  163213106 heartbeat IPC: 0.35744 cumulative IPC: 0.25351 (Simulation time: 0 hr 10 min 39 sec) 
Heartbeat CPU  1 instructions:   79000003 cycles:  163229958 heartbeat IPC: 0.38191 cumulative IPC: 0.20866 (Simulation time: 0 hr 10 min 39 sec) 
Heartbeat CPU  2 instructions:   98000001 cycles:  163623084 heartbeat IPC: 0.36456 cumulative IPC: 0.26414 (Simulation time: 0 hr 10 min 40 sec) 
Heartbeat CPU  3 instructions:   97000003 cycles:  166119955 heartbeat IPC: 0.33525 cumulative IPC: 0.24772 (Simulation time: 0 hr 10 min 48 sec) 
Heartbeat CPU  0 instructions:   92000000 cycles:  166868840 heartbeat IPC: 0.27354 cumulative IPC: 0.25403 (Simulation time: 0 hr 10 min 50 sec) 
Heartbeat CPU  2 instructions:   99000002 cycles:  167157655 heartbeat IPC: 0.28292 cumulative IPC: 0.26460 (Simulation time: 0 hr 10 min 51 sec) 
Heartbeat CPU  1 instructions:   80000000 cycles:  167171858 heartbeat IPC: 0.25368 cumulative IPC: 0.20990 (Simulation time: 0 hr 10 min 51 sec) 
Heartbeat CPU  3 instructions:   98000003 cycles:  168909799 heartbeat IPC: 0.35844 cumulative IPC: 0.24985 (Simulation time: 0 hr 10 min 56 sec) 
Heartbeat CPU  0 instructions:   93000003 cycles:  169764669 heartbeat IPC: 0.34533 cumulative IPC: 0.25584 (Simulation time: 0 hr 10 min 59 sec) 
*** Reached end of trace for Core: 2 Repeating trace: /data3/CASSANDRA/traces/cassandra_phase4_core2.trace.xz
Heartbeat CPU  2 instructions:  100000000 cycles:  169830279 heartbeat IPC: 0.37416 cumulative IPC: 0.26662 (Simulation time: 0 hr 10 min 59 sec) 
Heartbeat CPU  1 instructions:   81000002 cycles:  170834657 heartbeat IPC: 0.27302 cumulative IPC: 0.21148 (Simulation time: 0 hr 11 min 2 sec) 
Heartbeat CPU  3 instructions:   99000000 cycles:  171783599 heartbeat IPC: 0.34797 cumulative IPC: 0.25176 (Simulation time: 0 hr 11 min 5 sec) 
Heartbeat CPU  2 instructions:  101000001 cycles:  172416407 heartbeat IPC: 0.38668 cumulative IPC: 0.26871 (Simulation time: 0 hr 11 min 7 sec) 
Heartbeat CPU  0 instructions:   94000003 cycles:  172964575 heartbeat IPC: 0.31251 cumulative IPC: 0.25706 (Simulation time: 0 hr 11 min 8 sec) 
Heartbeat CPU  1 instructions:   82000002 cycles:  173584831 heartbeat IPC: 0.36361 cumulative IPC: 0.21428 (Simulation time: 0 hr 11 min 10 sec) 
*** Reached end of trace for Core: 3 Repeating trace: /data3/CASSANDRA/traces/cassandra_phase4_core3.trace.xz
Heartbeat CPU  3 instructions:  100000000 cycles:  174450476 heartbeat IPC: 0.37497 cumulative IPC: 0.25395 (Simulation time: 0 hr 11 min 13 sec) 
Heartbeat CPU  2 instructions:  102000003 cycles:  174981353 heartbeat IPC: 0.38987 cumulative IPC: 0.27077 (Simulation time: 0 hr 11 min 14 sec) 
Heartbeat CPU  1 instructions:   83000001 cycles:  176535950 heartbeat IPC: 0.33885 cumulative IPC: 0.21669 (Simulation time: 0 hr 11 min 18 sec) 
Heartbeat CPU  0 instructions:   95000001 cycles:  176778668 heartbeat IPC: 0.26219 cumulative IPC: 0.25719 (Simulation time: 0 hr 11 min 19 sec) 
Heartbeat CPU  3 instructions:  101000002 cycles:  177167689 heartbeat IPC: 0.36802 cumulative IPC: 0.25598 (Simulation time: 0 hr 11 min 20 sec) 
Heartbeat CPU  2 instructions:  103000001 cycles:  179122556 heartbeat IPC: 0.24148 cumulative IPC: 0.26999 (Simulation time: 0 hr 11 min 25 sec) 
Heartbeat CPU  1 instructions:   84000000 cycles:  179455604 heartbeat IPC: 0.34251 cumulative IPC: 0.21906 (Simulation time: 0 hr 11 min 26 sec) 
Heartbeat CPU  0 instructions:   96000000 cycles:  179607554 heartbeat IPC: 0.35350 cumulative IPC: 0.25895 (Simulation time: 0 hr 11 min 27 sec) 
Heartbeat CPU  3 instructions:  102000003 cycles:  179742676 heartbeat IPC: 0.38835 cumulative IPC: 0.25817 (Simulation time: 0 hr 11 min 27 sec) 
Heartbeat CPU  2 instructions:  104000000 cycles:  182122834 heartbeat IPC: 0.33330 cumulative IPC: 0.27119 (Simulation time: 0 hr 11 min 34 sec) 
Heartbeat CPU  0 instructions:   97000002 cycles:  182346836 heartbeat IPC: 0.36506 cumulative IPC: 0.26078 (Simulation time: 0 hr 11 min 35 sec) 
Heartbeat CPU  3 instructions:  103000000 cycles:  182377171 heartbeat IPC: 0.37958 cumulative IPC: 0.26019 (Simulation time: 0 hr 11 min 35 sec) 
Heartbeat CPU  1 instructions:   85000001 cycles:  183426043 heartbeat IPC: 0.25186 cumulative IPC: 0.21988 (Simulation time: 0 hr 11 min 37 sec) 
Heartbeat CPU  2 instructions:  105000001 cycles:  184653115 heartbeat IPC: 0.39521 cumulative IPC: 0.27315 (Simulation time: 0 hr 11 min 41 sec) 
Heartbeat CPU  0 instructions:   98000003 cycles:  185031254 heartbeat IPC: 0.37252 cumulative IPC: 0.26265 (Simulation time: 0 hr 11 min 42 sec) 
Heartbeat CPU  3 instructions:  104000000 cycles:  185192313 heartbeat IPC: 0.35522 cumulative IPC: 0.26186 (Simulation time: 0 hr 11 min 43 sec) 
Heartbeat CPU  1 instructions:   86000002 cycles:  186520198 heartbeat IPC: 0.32319 cumulative IPC: 0.22185 (Simulation time: 0 hr 11 min 46 sec) 
Heartbeat CPU  2 instructions:  106000000 cycles:  187122358 heartbeat IPC: 0.40498 cumulative IPC: 0.27515 (Simulation time: 0 hr 11 min 48 sec) 
Heartbeat CPU  0 instructions:   99000000 cycles:  187774989 heartbeat IPC: 0.36447 cumulative IPC: 0.26436 (Simulation time: 0 hr 11 min 50 sec) 
Heartbeat CPU  3 instructions:  105000001 cycles:  188786214 heartbeat IPC: 0.27825 cumulative IPC: 0.26221 (Simulation time: 0 hr 11 min 53 sec) 
Heartbeat CPU  1 instructions:   87000001 cycles:  189414863 heartbeat IPC: 0.34546 cumulative IPC: 0.22401 (Simulation time: 0 hr 11 min 55 sec) 
Heartbeat CPU  2 instructions:  107000000 cycles:  189723620 heartbeat IPC: 0.38443 cumulative IPC: 0.27687 (Simulation time: 0 hr 11 min 56 sec) 
*** Reached end of trace for Core: 0 Repeating trace: /data3/CASSANDRA/traces/cassandra_phase4_core0.trace.xz
Heartbeat CPU  0 instructions:  100000000 cycles:  190600709 heartbeat IPC: 0.35389 cumulative IPC: 0.26588 (Simulation time: 0 hr 11 min 58 sec) 
Heartbeat CPU  3 instructions:  106000002 cycles:  191433835 heartbeat IPC: 0.37770 cumulative IPC: 0.26404 (Simulation time: 0 hr 12 min 0 sec) 
Heartbeat CPU  2 instructions:  108000000 cycles:  192236658 heartbeat IPC: 0.39792 cumulative IPC: 0.27868 (Simulation time: 0 hr 12 min 3 sec) 
Heartbeat CPU  1 instructions:   88000000 cycles:  192553284 heartbeat IPC: 0.31863 cumulative IPC: 0.22578 (Simulation time: 0 hr 12 min 4 sec) 
Heartbeat CPU  0 instructions:  101000003 cycles:  194050281 heartbeat IPC: 0.28989 cumulative IPC: 0.26637 (Simulation time: 0 hr 12 min 8 sec) 
Heartbeat CPU  3 instructions:  107000001 cycles:  194199508 heartbeat IPC: 0.36158 cumulative IPC: 0.26563 (Simulation time: 0 hr 12 min 8 sec) 
Heartbeat CPU  2 instructions:  109000000 cycles:  195120903 heartbeat IPC: 0.34671 cumulative IPC: 0.27983 (Simulation time: 0 hr 12 min 10 sec) 
Heartbeat CPU  1 instructions:   89000002 cycles:  196233629 heartbeat IPC: 0.27171 cumulative IPC: 0.22676 (Simulation time: 0 hr 12 min 13 sec) 
Heartbeat CPU  3 instructions:  108000000 cycles:  197322578 heartbeat IPC: 0.32020 cumulative IPC: 0.26661 (Simulation time: 0 hr 12 min 17 sec) 
Heartbeat CPU  0 instructions:  102000001 cycles:  197473083 heartbeat IPC: 0.29216 cumulative IPC: 0.26688 (Simulation time: 0 hr 12 min 17 sec) 
Heartbeat CPU  2 instructions:  110000000 cycles:  197808264 heartbeat IPC: 0.37211 cumulative IPC: 0.28125 (Simulation time: 0 hr 12 min 18 sec) 
Heartbeat CPU  1 instructions:   90000003 cycles:  198949581 heartbeat IPC: 0.36820 cumulative IPC: 0.22896 (Simulation time: 0 hr 12 min 21 sec) 
Heartbeat CPU  3 instructions:  109000002 cycles:  200046227 heartbeat IPC: 0.36716 cumulative IPC: 0.26817 (Simulation time: 0 hr 12 min 24 sec) 
Heartbeat CPU  0 instructions:  103000002 cycles:  200113913 heartbeat IPC: 0.37867 cumulative IPC: 0.26855 (Simulation time: 0 hr 12 min 24 sec) 
Heartbeat CPU  2 instructions:  111000001 cycles:  201221080 heartbeat IPC: 0.29301 cumulative IPC: 0.28148 (Simulation time: 0 hr 12 min 27 sec) 
Heartbeat CPU  1 instructions:   91000003 cycles:  201681368 heartbeat IPC: 0.36606 cumulative IPC: 0.23107 (Simulation time: 0 hr 12 min 29 sec) 
Heartbeat CPU  0 instructions:  104000000 cycles:  202747844 heartbeat IPC: 0.37966 cumulative IPC: 0.27019 (Simulation time: 0 hr 12 min 32 sec) 
Heartbeat CPU  3 instructions:  110000000 cycles:  202986606 heartbeat IPC: 0.34009 cumulative IPC: 0.26936 (Simulation time: 0 hr 12 min 32 sec) 
Heartbeat CPU  2 instructions:  112000000 cycles:  203896196 heartbeat IPC: 0.37382 cumulative IPC: 0.28286 (Simulation time: 0 hr 12 min 35 sec) 
Heartbeat CPU  1 instructions:   92000000 cycles:  204506609 heartbeat IPC: 0.35395 cumulative IPC: 0.23300 (Simulation time: 0 hr 12 min 37 sec) 
Heartbeat CPU  0 instructions:  105000001 cycles:  205459435 heartbeat IPC: 0.36879 cumulative IPC: 0.27167 (Simulation time: 0 hr 12 min 39 sec) 
Heartbeat CPU  3 instructions:  111000003 cycles:  205697068 heartbeat IPC: 0.36894 cumulative IPC: 0.27084 (Simulation time: 0 hr 12 min 40 sec) 
Heartbeat CPU  2 instructions:  113000003 cycles:  206735744 heartbeat IPC: 0.35217 cumulative IPC: 0.28393 (Simulation time: 0 hr 12 min 43 sec) 
Heartbeat CPU  1 instructions:   93000001 cycles:  207347993 heartbeat IPC: 0.35194 cumulative IPC: 0.23484 (Simulation time: 0 hr 12 min 45 sec) 
Heartbeat CPU  0 instructions:  106000001 cycles:  208435846 heartbeat IPC: 0.33598 cumulative IPC: 0.27271 (Simulation time: 0 hr 12 min 48 sec) 
Heartbeat CPU  3 instructions:  112000000 cycles:  208457796 heartbeat IPC: 0.36222 cumulative IPC: 0.27221 (Simulation time: 0 hr 12 min 48 sec) 
Heartbeat CPU  2 instructions:  114000001 cycles:  209476290 heartbeat IPC: 0.36489 cumulative IPC: 0.28513 (Simulation time: 0 hr 12 min 51 sec) 
Heartbeat CPU  1 instructions:   94000001 cycles:  210509142 heartbeat IPC: 0.31634 cumulative IPC: 0.23622 (Simulation time: 0 hr 12 min 53 sec) 
Heartbeat CPU  3 instructions:  113000002 cycles:  211227625 heartbeat IPC: 0.36103 cumulative IPC: 0.27353 (Simulation time: 0 hr 12 min 55 sec) 
Heartbeat CPU  2 instructions:  115000001 cycles:  212231351 heartbeat IPC: 0.36297 cumulative IPC: 0.28627 (Simulation time: 0 hr 12 min 58 sec) 
Heartbeat CPU  0 instructions:  107000000 cycles:  212302165 heartbeat IPC: 0.25864 cumulative IPC: 0.27242 (Simulation time: 0 hr 12 min 58 sec) 
Heartbeat CPU  1 instructions:   95000001 cycles:  213932020 heartbeat IPC: 0.29215 cumulative IPC: 0.23723 (Simulation time: 0 hr 13 min 2 sec) 
Heartbeat CPU  3 instructions:  114000003 cycles:  214244088 heartbeat IPC: 0.33151 cumulative IPC: 0.27445 (Simulation time: 0 hr 13 min 3 sec) 
Heartbeat CPU  0 instructions:  108000000 cycles:  215429577 heartbeat IPC: 0.31975 cumulative IPC: 0.27319 (Simulation time: 0 hr 13 min 6 sec) 
Heartbeat CPU  2 instructions:  116000000 cycles:  215753037 heartbeat IPC: 0.28395 cumulative IPC: 0.28623 (Simulation time: 0 hr 13 min 7 sec) 
Heartbeat CPU  1 instructions:   96000000 cycles:  216926712 heartbeat IPC: 0.33392 cumulative IPC: 0.23874 (Simulation time: 0 hr 13 min 11 sec) 
Heartbeat CPU  3 instructions:  115000000 cycles:  217693101 heartbeat IPC: 0.28994 cumulative IPC: 0.27473 (Simulation time: 0 hr 13 min 13 sec) 
Heartbeat CPU  0 instructions:  109000002 cycles:  218779772 heartbeat IPC: 0.29849 cumulative IPC: 0.27363 (Simulation time: 0 hr 13 min 16 sec) 
Heartbeat CPU  2 instructions:  117000000 cycles:  218802050 heartbeat IPC: 0.32797 cumulative IPC: 0.28688 (Simulation time: 0 hr 13 min 16 sec) 
Heartbeat CPU  1 instructions:   97000002 cycles:  219592727 heartbeat IPC: 0.37509 cumulative IPC: 0.24060 (Simulation time: 0 hr 13 min 18 sec) 
Heartbeat CPU  3 instructions:  116000000 cycles:  220462771 heartbeat IPC: 0.36105 cumulative IPC: 0.27594 (Simulation time: 0 hr 13 min 21 sec) 
Heartbeat CPU  2 instructions:  118000000 cycles:  221327708 heartbeat IPC: 0.39594 cumulative IPC: 0.28828 (Simulation time: 0 hr 13 min 23 sec) 
Heartbeat CPU  0 instructions:  110000000 cycles:  222039644 heartbeat IPC: 0.30676 cumulative IPC: 0.27418 (Simulation time: 0 hr 13 min 25 sec) 
Heartbeat CPU  1 instructions:   98000002 cycles:  222248068 heartbeat IPC: 0.37660 cumulative IPC: 0.24242 (Simulation time: 0 hr 13 min 26 sec) 
Heartbeat CPU  3 instructions:  117000001 cycles:  223145220 heartbeat IPC: 0.37279 cumulative IPC: 0.27725 (Simulation time: 0 hr 13 min 29 sec) 
Heartbeat CPU  2 instructions:  119000003 cycles:  223746671 heartbeat IPC: 0.41340 cumulative IPC: 0.28980 (Simulation time: 0 hr 13 min 30 sec) 
Heartbeat CPU  0 instructions:  111000000 cycles:  224818408 heartbeat IPC: 0.35987 cumulative IPC: 0.27536 (Simulation time: 0 hr 13 min 33 sec) 
Heartbeat CPU  1 instructions:   99000002 cycles:  224894105 heartbeat IPC: 0.37792 cumulative IPC: 0.24421 (Simulation time: 0 hr 13 min 34 sec) 
Heartbeat CPU  2 instructions:  120000000 cycles:  226102081 heartbeat IPC: 0.42455 cumulative IPC: 0.29137 (Simulation time: 0 hr 13 min 37 sec) 
Heartbeat CPU  3 instructions:  118000000 cycles:  226541391 heartbeat IPC: 0.29445 cumulative IPC: 0.27754 (Simulation time: 0 hr 13 min 38 sec) 
Heartbeat CPU  0 instructions:  112000000 cycles:  227562939 heartbeat IPC: 0.36436 cumulative IPC: 0.27656 (Simulation time: 0 hr 13 min 41 sec) 
*** Reached end of trace for Core: 1 Repeating trace: /data3/CASSANDRA/traces/cassandra_phase4_core1.trace.xz
Heartbeat CPU  1 instructions:  100000000 cycles:  227755080 heartbeat IPC: 0.34953 cumulative IPC: 0.24569 (Simulation time: 0 hr 13 min 42 sec) 
Heartbeat CPU  2 instructions:  121000003 cycles:  228530800 heartbeat IPC: 0.41174 cumulative IPC: 0.29280 (Simulation time: 0 hr 13 min 44 sec) 
Heartbeat CPU  3 instructions:  119000003 cycles:  229610412 heartbeat IPC: 0.32584 cumulative IPC: 0.27826 (Simulation time: 0 hr 13 min 47 sec) 
Heartbeat CPU  0 instructions:  113000002 cycles:  230286239 heartbeat IPC: 0.36720 cumulative IPC: 0.27776 (Simulation time: 0 hr 13 min 49 sec) 
Heartbeat CPU  1 instructions:  101000000 cycles:  230468982 heartbeat IPC: 0.36847 cumulative IPC: 0.24730 (Simulation time: 0 hr 13 min 50 sec) 
Heartbeat CPU  2 instructions:  122000001 cycles:  230938645 heartbeat IPC: 0.41531 cumulative IPC: 0.29423 (Simulation time: 0 hr 13 min 51 sec) 
Heartbeat CPU  3 instructions:  120000000 cycles:  232655671 heartbeat IPC: 0.32838 cumulative IPC: 0.27899 (Simulation time: 0 hr 13 min 56 sec) 
Heartbeat CPU  1 instructions:  102000003 cycles:  232974400 heartbeat IPC: 0.39914 cumulative IPC: 0.24913 (Simulation time: 0 hr 13 min 57 sec) 
Heartbeat CPU  2 instructions:  123000001 cycles:  233448683 heartbeat IPC: 0.39840 cumulative IPC: 0.29548 (Simulation time: 0 hr 13 min 58 sec) 
Heartbeat CPU  0 instructions:  114000000 cycles:  233719458 heartbeat IPC: 0.29127 cumulative IPC: 0.27798 (Simulation time: 0 hr 13 min 59 sec) 
Heartbeat CPU  3 instructions:  121000000 cycles:  235613855 heartbeat IPC: 0.33805 cumulative IPC: 0.27982 (Simulation time: 0 hr 14 min 4 sec) 
Heartbeat CPU  1 instructions:  103000001 cycles:  236187943 heartbeat IPC: 0.31118 cumulative IPC: 0.25007 (Simulation time: 0 hr 14 min 6 sec) 
Heartbeat CPU  0 instructions:  115000002 cycles:  236719807 heartbeat IPC: 0.33330 cumulative IPC: 0.27876 (Simulation time: 0 hr 14 min 8 sec) 
Heartbeat CPU  2 instructions:  124000000 cycles:  236957794 heartbeat IPC: 0.28497 cumulative IPC: 0.29531 (Simulation time: 0 hr 14 min 8 sec) 
Heartbeat CPU  3 instructions:  122000000 cycles:  238495016 heartbeat IPC: 0.34708 cumulative IPC: 0.28072 (Simulation time: 0 hr 14 min 13 sec) 
Heartbeat CPU  1 instructions:  104000000 cycles:  239434690 heartbeat IPC: 0.30800 cumulative IPC: 0.25094 (Simulation time: 0 hr 14 min 16 sec) 
Heartbeat CPU  0 instructions:  116000000 cycles:  239451261 heartbeat IPC: 0.36610 cumulative IPC: 0.27987 (Simulation time: 0 hr 14 min 16 sec) 
Heartbeat CPU  2 instructions:  125000001 cycles:  239640448 heartbeat IPC: 0.37277 cumulative IPC: 0.29627 (Simulation time: 0 hr 14 min 16 sec) 
Heartbeat CPU  3 instructions:  123000002 cycles:  241166295 heartbeat IPC: 0.37435 cumulative IPC: 0.28188 (Simulation time: 0 hr 14 min 20 sec) 
Heartbeat CPU  0 instructions:  117000002 cycles:  242203128 heartbeat IPC: 0.36339 cumulative IPC: 0.28093 (Simulation time: 0 hr 14 min 23 sec) 
Heartbeat CPU  1 instructions:  105000003 cycles:  242223961 heartbeat IPC: 0.35852 cumulative IPC: 0.25232 (Simulation time: 0 hr 14 min 23 sec) 
Heartbeat CPU  2 instructions:  126000001 cycles:  242584481 heartbeat IPC: 0.33967 cumulative IPC: 0.29686 (Simulation time: 0 hr 14 min 24 sec) 
Heartbeat CPU  3 instructions:  124000000 cycles:  244009152 heartbeat IPC: 0.35176 cumulative IPC: 0.28278 (Simulation time: 0 hr 14 min 29 sec) 
Heartbeat CPU  1 instructions:  106000000 cycles:  245034228 heartbeat IPC: 0.35584 cumulative IPC: 0.25364 (Simulation time: 0 hr 14 min 31 sec) 
Heartbeat CPU  2 instructions:  127000000 cycles:  245518758 heartbeat IPC: 0.34080 cumulative IPC: 0.29744 (Simulation time: 0 hr 14 min 32 sec) 
Heartbeat CPU  0 instructions:  118000003 cycles:  246136405 heartbeat IPC: 0.25424 cumulative IPC: 0.28045 (Simulation time: 0 hr 14 min 34 sec) 
Heartbeat CPU  3 instructions:  125000000 cycles:  247361155 heartbeat IPC: 0.29833 cumulative IPC: 0.28301 (Simulation time: 0 hr 14 min 37 sec) 
Heartbeat CPU  1 instructions:  107000002 cycles:  248063691 heartbeat IPC: 0.33009 cumulative IPC: 0.25467 (Simulation time: 0 hr 14 min 39 sec) 
Heartbeat CPU  2 instructions:  128000000 cycles:  248392217 heartbeat IPC: 0.34801 cumulative IPC: 0.29809 (Simulation time: 0 hr 14 min 40 sec) 
Heartbeat CPU  0 instructions:  119000000 cycles:  249642135 heartbeat IPC: 0.28525 cumulative IPC: 0.28053 (Simulation time: 0 hr 14 min 43 sec) 
Heartbeat CPU  3 instructions:  126000000 cycles:  250324934 heartbeat IPC: 0.33741 cumulative IPC: 0.28373 (Simulation time: 0 hr 14 min 45 sec) 
Heartbeat CPU  2 instructions:  129000001 cycles:  250938207 heartbeat IPC: 0.39277 cumulative IPC: 0.29915 (Simulation time: 0 hr 14 min 47 sec) 
Heartbeat CPU  1 instructions:  108000000 cycles:  251217336 heartbeat IPC: 0.31709 cumulative IPC: 0.25554 (Simulation time: 0 hr 14 min 47 sec) 
Heartbeat CPU  0 instructions:  120000000 cycles:  252727936 heartbeat IPC: 0.32406 cumulative IPC: 0.28112 (Simulation time: 0 hr 14 min 51 sec) 
Heartbeat CPU  3 instructions:  127000003 cycles:  253266187 heartbeat IPC: 0.33999 cumulative IPC: 0.28445 (Simulation time: 0 hr 14 min 53 sec) 
Heartbeat CPU  2 instructions:  130000001 cycles:  253509925 heartbeat IPC: 0.38885 cumulative IPC: 0.30016 (Simulation time: 0 hr 14 min 54 sec) 
Heartbeat CPU  1 instructions:  109000000 cycles:  253845100 heartbeat IPC: 0.38055 cumulative IPC: 0.25697 (Simulation time: 0 hr 14 min 55 sec) 
Heartbeat CPU  0 instructions:  121000001 cycles:  255947445 heartbeat IPC: 0.31061 cumulative IPC: 0.28153 (Simulation time: 0 hr 15 min 1 sec) 
Heartbeat CPU  3 instructions:  128000000 cycles:  256006380 heartbeat IPC: 0.36494 cumulative IPC: 0.28540 (Simulation time: 0 hr 15 min 1 sec) 
Heartbeat CPU  2 instructions:  131000000 cycles:  256090783 heartbeat IPC: 0.38747 cumulative IPC: 0.30113 (Simulation time: 0 hr 15 min 1 sec) 
Heartbeat CPU  1 instructions:  110000001 cycles:  256332058 heartbeat IPC: 0.40210 cumulative IPC: 0.25852 (Simulation time: 0 hr 15 min 2 sec) 
Heartbeat CPU  1 instructions:  111000003 cycles:  258885602 heartbeat IPC: 0.39161 cumulative IPC: 0.25997 (Simulation time: 0 hr 15 min 9 sec) 
Heartbeat CPU  2 instructions:  132000000 cycles:  258914915 heartbeat IPC: 0.35409 cumulative IPC: 0.30177 (Simulation time: 0 hr 15 min 9 sec) 
Heartbeat CPU  3 instructions:  129000002 cycles:  259029659 heartbeat IPC: 0.33077 cumulative IPC: 0.28599 (Simulation time: 0 hr 15 min 9 sec) 
Heartbeat CPU  0 instructions:  122000002 cycles:  259538468 heartbeat IPC: 0.27847 cumulative IPC: 0.28148 (Simulation time: 0 hr 15 min 11 sec) 
Heartbeat CPU  1 instructions:  112000000 cycles:  261482723 heartbeat IPC: 0.38504 cumulative IPC: 0.26134 (Simulation time: 0 hr 15 min 17 sec) 
Heartbeat CPU  2 instructions:  133000000 cycles:  261602516 heartbeat IPC: 0.37208 cumulative IPC: 0.30256 (Simulation time: 0 hr 15 min 17 sec) 
Heartbeat CPU  3 instructions:  130000000 cycles:  262159805 heartbeat IPC: 0.31947 cumulative IPC: 0.28643 (Simulation time: 0 hr 15 min 19 sec) 
Heartbeat CPU  0 instructions:  123000000 cycles:  262293197 heartbeat IPC: 0.36301 cumulative IPC: 0.28242 (Simulation time: 0 hr 15 min 19 sec) 
Heartbeat CPU  1 instructions:  113000003 cycles:  264051641 heartbeat IPC: 0.38927 cumulative IPC: 0.26271 (Simulation time: 0 hr 15 min 24 sec) 
Heartbeat CPU  2 instructions:  134000003 cycles:  264310884 heartbeat IPC: 0.36923 cumulative IPC: 0.30331 (Simulation time: 0 hr 15 min 25 sec) 
Heartbeat CPU  3 instructions:  131000002 cycles:  264899965 heartbeat IPC: 0.36494 cumulative IPC: 0.28732 (Simulation time: 0 hr 15 min 26 sec) 
Heartbeat CPU  0 instructions:  124000000 cycles:  264980920 heartbeat IPC: 0.37206 cumulative IPC: 0.28342 (Simulation time: 0 hr 15 min 27 sec) 
Heartbeat CPU  1 instructions:  114000003 cycles:  266870551 heartbeat IPC: 0.35475 cumulative IPC: 0.26378 (Simulation time: 0 hr 15 min 32 sec) 
Heartbeat CPU  2 instructions:  135000000 cycles:  266969473 heartbeat IPC: 0.37614 cumulative IPC: 0.30411 (Simulation time: 0 hr 15 min 32 sec) 
Heartbeat CPU  3 instructions:  132000000 cycles:  267650492 heartbeat IPC: 0.36357 cumulative IPC: 0.28818 (Simulation time: 0 hr 15 min 34 sec) 
Heartbeat CPU  0 instructions:  125000001 cycles:  267686269 heartbeat IPC: 0.36964 cumulative IPC: 0.28438 (Simulation time: 0 hr 15 min 34 sec) 
Heartbeat CPU  1 instructions:  115000001 cycles:  269395723 heartbeat IPC: 0.39601 cumulative IPC: 0.26514 (Simulation time: 0 hr 15 min 39 sec) 
Heartbeat CPU  2 instructions:  136000000 cycles:  270014201 heartbeat IPC: 0.32844 cumulative IPC: 0.30441 (Simulation time: 0 hr 15 min 41 sec) 
Heartbeat CPU  3 instructions:  133000002 cycles:  270725556 heartbeat IPC: 0.32520 cumulative IPC: 0.28864 (Simulation time: 0 hr 15 min 42 sec) 
Heartbeat CPU  0 instructions:  126000001 cycles:  271156561 heartbeat IPC: 0.28816 cumulative IPC: 0.28444 (Simulation time: 0 hr 15 min 43 sec) 
Heartbeat CPU  1 instructions:  116000000 cycles:  272124683 heartbeat IPC: 0.36644 cumulative IPC: 0.26626 (Simulation time: 0 hr 15 min 46 sec) 
Heartbeat CPU  0 instructions:  127000000 cycles:  273970947 heartbeat IPC: 0.35532 cumulative IPC: 0.28523 (Simulation time: 0 hr 15 min 50 sec) 
Heartbeat CPU  3 instructions:  134000000 cycles:  274407818 heartbeat IPC: 0.27157 cumulative IPC: 0.28839 (Simulation time: 0 hr 15 min 51 sec) 
Heartbeat CPU  2 instructions:  137000000 cycles:  274676721 heartbeat IPC: 0.21448 cumulative IPC: 0.30274 (Simulation time: 0 hr 15 min 52 sec) 
Heartbeat CPU  0 instructions:  128000000 cycles:  276747575 heartbeat IPC: 0.36015 cumulative IPC: 0.28606 (Simulation time: 0 hr 15 min 57 sec) 
Heartbeat CPU  1 instructions:  117000002 cycles:  277436828 heartbeat IPC: 0.18825 cumulative IPC: 0.26462 (Simulation time: 0 hr 15 min 59 sec) 
Heartbeat CPU  2 instructions:  138000002 cycles:  277483745 heartbeat IPC: 0.35625 cumulative IPC: 0.30333 (Simulation time: 0 hr 15 min 59 sec) 
Heartbeat CPU  3 instructions:  135000003 cycles:  277627543 heartbeat IPC: 0.31059 cumulative IPC: 0.28867 (Simulation time: 0 hr 15 min 59 sec) 
Heartbeat CPU  0 instructions:  129000002 cycles:  279572122 heartbeat IPC: 0.35404 cumulative IPC: 0.28681 (Simulation time: 0 hr 16 min 5 sec) 
Heartbeat CPU  2 instructions:  139000000 cycles:  280054598 heartbeat IPC: 0.38898 cumulative IPC: 0.30419 (Simulation time: 0 hr 16 min 6 sec) 
Heartbeat CPU  3 instructions:  136000000 cycles:  280231238 heartbeat IPC: 0.38407 cumulative IPC: 0.28964 (Simulation time: 0 hr 16 min 7 sec) 
Heartbeat CPU  1 instructions:  118000000 cycles:  280298561 heartbeat IPC: 0.34944 cumulative IPC: 0.26557 (Simulation time: 0 hr 16 min 7 sec) 
Heartbeat CPU  0 instructions:  130000001 cycles:  282449296 heartbeat IPC: 0.34756 cumulative IPC: 0.28749 (Simulation time: 0 hr 16 min 12 sec) 
Heartbeat CPU  2 instructions:  140000000 cycles:  282547703 heartbeat IPC: 0.40111 cumulative IPC: 0.30513 (Simulation time: 0 hr 16 min 12 sec) 
[...]
Core_0_L1I_acc_level_5 0
Core_0_L1I_acc_level_6 0
Core_0_L1I_acc_level_7 0
Core_0_L1I_acc_level_8 0
Core_0_L1I_acc_level_9 0

Core_0_L2C_total_access 2613920
Core_0_L2C_total_hit 1127480
Core_0_L2C_total_miss 1486440
Core_0_L2C_loads 1881150
Core_0_L2C_load_hit 585882
Core_0_L2C_load_miss 1295268
Core_0_L2C_RFOs 227700
Core_0_L2C_RFO_hit 40204
Core_0_L2C_RFO_miss 187496
Core_0_L2C_prefetches 0
Core_0_L2C_prefetch_hit 0
Core_0_L2C_prefetch_miss 0
Core_0_L2C_writebacks 505070
Core_0_L2C_writeback_hit 501394
Core_0_L2C_writeback_miss 3676
Core_0_L2C_prefetch_requested 0
Core_0_L2C_prefetch_dropped 0
Core_0_L2C_prefetch_issued 0
Core_0_L2C_prefetch_filled 0
Core_0_L2C_prefetch_useful 0
Core_0_L2C_prefetch_useless 0
Core_0_L2C_prefetch_late 0
Core_0_L2C_average_miss_latency 191.08671

Core_0_L2C_rq_access 2373011
Core_0_L2C_rq_forward 0
Core_0_L2C_rq_merged 0
Core_0_L2C_rq_to_cache 2372962
Core_0_L2C_rq_full 0

Core_0_L2C_wq_access 565687
Core_0_L2C_wq_forward 49
Core_0_L2C_wq_merged 0
Core_0_L2C_wq_to_cache 565687
Core_0_L2C_wq_full 0

Core_0_L2C_pq_access 0
Core_0_L2C_pq_forward 0
Core_0_L2C_pq_merged 0
Core_0_L2C_pq_to_cache 0
Core_0_L2C_pq_full 0

Core_0_L2C_acc_epochs 250094
Core_0_L2C_acc_level_0 250094
Core_0_L2C_acc_level_1 0
Core_0_L2C_acc_level_2 0
Core_0_L2C_acc_level_3 0
Core_0_L2C_acc_level_4 0
Core_0_L2C_acc_level_5 0
Core_0_L2C_acc_level_6 0
Core_0_L2C_acc_level_7 0
Core_0_L2C_acc_level_8 0
Core_0_L2C_acc_level_9 0

Core_0_LLC_total_access 1921952
Core_0_LLC_total_hit 810150
Core_0_LLC_total_miss 1111802
Core_0_LLC_loads 1295265
Core_0_LLC_load_hit 526910
Core_0_LLC_load_miss 768355
Core_0_LLC_RFOs 187495
Core_0_LLC_RFO_hit 43280
Core_0_LLC_RFO_miss 144215
Core_0_LLC_prefetches 0
Core_0_LLC_prefetch_hit 0
Core_0_LLC_prefetch_miss 0
Core_0_LLC_writebacks 439192
Core_0_LLC_writeback_hit 239960
Core_0_LLC_writeback_miss 199232
Core_0_LLC_prefetch_requested 0
Core_0_LLC_prefetch_dropped 0
Core_0_LLC_prefetch_issued 0
Core_0_LLC_prefetch_filled 0
Core_0_LLC_prefetch_useful 0
Core_0_LLC_prefetch_useless 0
Core_0_LLC_prefetch_late 0
Core_0_LLC_average_miss_latency 751.39425

Core_0_LLC_rq_access 6596413
Core_0_LLC_rq_forward 0
Core_0_LLC_rq_merged 0
Core_0_LLC_rq_to_cache 6596398
Core_0_LLC_rq_full 0

Core_0_LLC_wq_access 1861132
Core_0_LLC_wq_forward 15
Core_0_LLC_wq_merged 0
Core_0_LLC_wq_to_cache 1861132
Core_0_LLC_wq_full 0

Core_0_LLC_pq_access 0
Core_0_LLC_pq_forward 0
Core_0_LLC_pq_merged 0
Core_0_LLC_pq_to_cache 0
Core_0_LLC_pq_full 0

Core_0_LLC_acc_epochs 605038
Core_0_LLC_acc_level_0 605038
Core_0_LLC_acc_level_1 0
Core_0_LLC_acc_level_2 0
Core_0_LLC_acc_level_3 0
Core_0_LLC_acc_level_4 0
Core_0_LLC_acc_level_5 0
Core_0_LLC_acc_level_6 0
Core_0_LLC_acc_level_7 0
Core_0_LLC_acc_level_8 0
Core_0_LLC_acc_level_9 0

Core_0_major_page_fault 0
Core_0_minor_page_fault 51884

Core_1_instructions 150000000
Core_1_cycles 595312645
Core_1_IPC 0.25197

Core_1_branch_prediction_accuracy 96.65874
Core_1_branch_MPKI 5.09649
Core_1_average_ROB_occupancy_at_mispredict 83.92139

Core_1_L1D_total_access 17928634
Core_1_L1D_total_hit 16090551
Core_1_L1D_total_miss 1838083
Core_1_L1D_loads 11989082
Core_1_L1D_load_hit 10399583
Core_1_L1D_load_miss 1589499
Core_1_L1D_RFOs 5939552
Core_1_L1D_RFO_hit 5690968
Core_1_L1D_RFO_miss 248584
Core_1_L1D_prefetches 0
Core_1_L1D_prefetch_hit 0
Core_1_L1D_prefetch_miss 0
Core_1_L1D_writebacks 0
Core_1_L1D_writeback_hit 0
Core_1_L1D_writeback_miss 0
Core_1_L1D_prefetch_requested 0
Core_1_L1D_prefetch_dropped 0
Core_1_L1D_prefetch_issued 0
Core_1_L1D_prefetch_filled 0
Core_1_L1D_prefetch_useful 0
Core_1_L1D_prefetch_useless 0
Core_1_L1D_prefetch_late 0
Core_1_L1D_average_miss_latency 190.20452

Core_1_L1D_rq_access 20786560
Core_1_L1D_rq_forward 0
Core_1_L1D_rq_merged 8211247
Core_1_L1D_rq_to_cache 12573950
Core_1_L1D_rq_full 0

Core_1_L1D_wq_access 6812531
Core_1_L1D_wq_forward 1363
Core_1_L1D_wq_merged 155524
Core_1_L1D_wq_to_cache 6657007
Core_1_L1D_wq_full 0

Core_1_L1D_pq_access 0
Core_1_L1D_pq_forward 0
Core_1_L1D_pq_merged 0
Core_1_L1D_pq_to_cache 0
Core_1_L1D_pq_full 0

Core_1_L1D_acc_epochs 249147
Core_1_L1D_acc_level_0 249147
Core_1_L1D_acc_level_1 0
Core_1_L1D_acc_level_2 0
Core_1_L1D_acc_level_3 0
Core_1_L1D_acc_level_4 0
Core_1_L1D_acc_level_5 0
Core_1_L1D_acc_level_6 0
Core_1_L1D_acc_level_7 0
Core_1_L1D_acc_level_8 0
Core_1_L1D_acc_level_9 0

Core_1_L1I_total_access 32358739
Core_1_L1I_total_hit 31460265
Core_1_L1I_total_miss 898474
Core_1_L1I_loads 32358739
Core_1_L1I_load_hit 31460265
Core_1_L1I_load_miss 898474
Core_1_L1I_RFOs 0
Core_1_L1I_RFO_hit 0
Core_1_L1I_RFO_miss 0
Core_1_L1I_prefetches 0
Core_1_L1I_prefetch_hit 0
Core_1_L1I_prefetch_miss 0
Core_1_L1I_writebacks 0
Core_1_L1I_writeback_hit 0
Core_1_L1I_writeback_miss 0
Core_1_L1I_prefetch_requested 0
Core_1_L1I_prefetch_dropped 0
Core_1_L1I_prefetch_issued 0
Core_1_L1I_prefetch_filled 0
Core_1_L1I_prefetch_useful 0
Core_1_L1I_prefetch_useless 0
Core_1_L1I_prefetch_late 0
Core_1_L1I_average_miss_latency 78.95600

Core_1_L1I_rq_access 150000006
Core_1_L1I_rq_forward 0
Core_1_L1I_rq_merged 117136823
Core_1_L1I_rq_to_cache 32863183
Core_1_L1I_rq_full 0

Core_1_L1I_wq_access 0
Core_1_L1I_wq_forward 0
Core_1_L1I_wq_merged 0
Core_1_L1I_wq_to_cache 0
Core_1_L1I_wq_full 0

Core_1_L1I_pq_access 0
Core_1_L1I_pq_forward 0
Core_1_L1I_pq_merged 0
Core_1_L1I_pq_to_cache 0
Core_1_L1I_pq_full 0

Core_1_L1I_acc_epochs 249147
Core_1_L1I_acc_level_0 249147
Core_1_L1I_acc_level_1 0
Core_1_L1I_acc_level_2 0
Core_1_L1I_acc_level_3 0
Core_1_L1I_acc_level_4 0
Core_1_L1I_acc_level_5 0
Core_1_L1I_acc_level_6 0
Core_1_L1I_acc_level_7 0
Core_1_L1I_acc_level_8 0
Core_1_L1I_acc_level_9 0

Core_1_L2C_total_access 3337804
Core_1_L2C_total_hit 1474544
Core_1_L2C_total_miss 1863260
Core_1_L2C_loads 2487939
Core_1_L2C_load_hit 819700
Core_1_L2C_load_miss 1668239
Core_1_L2C_RFOs 248526
Core_1_L2C_RFO_hit 58173
Core_1_L2C_RFO_miss 190353
Core_1_L2C_prefetches 0
Core_1_L2C_prefetch_hit 0
Core_1_L2C_prefetch_miss 0
Core_1_L2C_writebacks 601339
Core_1_L2C_writeback_hit 596671
Core_1_L2C_writeback_miss 4668
Core_1_L2C_prefetch_requested 0
Core_1_L2C_prefetch_dropped 0
Core_1_L2C_prefetch_issued 0
Core_1_L2C_prefetch_filled 0
Core_1_L2C_prefetch_useful 0
Core_1_L2C_prefetch_useless 0
Core_1_L2C_prefetch_late 0
Core_1_L2C_average_miss_latency 170.34515

Core_1_L2C_rq_access 2736555
Core_1_L2C_rq_forward 0
Core_1_L2C_rq_merged 0
Core_1_L2C_rq_to_cache 2736463
Core_1_L2C_rq_full 0

Core_1_L2C_wq_access 601339
Core_1_L2C_wq_forward 92
Core_1_L2C_wq_merged 0
Core_1_L2C_wq_to_cache 601339
Core_1_L2C_wq_full 0

Core_1_L2C_pq_access 0
Core_1_L2C_pq_forward 0
Core_1_L2C_pq_merged 0
Core_1_L2C_pq_to_cache 0
Core_1_L2C_pq_full 0

Core_1_L2C_acc_epochs 249147
Core_1_L2C_acc_level_0 249147
Core_1_L2C_acc_level_1 0
Core_1_L2C_acc_level_2 0
Core_1_L2C_acc_level_3 0
Core_1_L2C_acc_level_4 0
Core_1_L2C_acc_level_5 0
Core_1_L2C_acc_level_6 0
Core_1_L2C_acc_level_7 0
Core_1_L2C_acc_level_8 0
Core_1_L2C_acc_level_9 0

Core_1_LLC_total_access 2352346
Core_1_LLC_total_hit 955621
Core_1_LLC_total_miss 1396725
Core_1_LLC_loads 1668238
Core_1_LLC_load_hit 587875
Core_1_LLC_load_miss 1080363
Core_1_LLC_RFOs 190348
Core_1_LLC_RFO_hit 52828
Core_1_LLC_RFO_miss 137520
Core_1_LLC_prefetches 0
Core_1_LLC_prefetch_hit 0
Core_1_LLC_prefetch_miss 0
Core_1_LLC_writebacks 493760
Core_1_LLC_writeback_hit 314918
Core_1_LLC_writeback_miss 178842
Core_1_LLC_prefetch_requested 0
Core_1_LLC_prefetch_dropped 0
Core_1_LLC_prefetch_issued 0
Core_1_LLC_prefetch_filled 0
Core_1_LLC_prefetch_useful 0
Core_1_LLC_prefetch_useless 0
Core_1_LLC_prefetch_late 0
Core_1_LLC_average_miss_latency 598.11461

Core_1_LLC_rq_access 6596413
Core_1_LLC_rq_forward 0
Core_1_LLC_rq_merged 0
Core_1_LLC_rq_to_cache 6596398
Core_1_LLC_rq_full 0

Core_1_LLC_wq_access 1861132
Core_1_LLC_wq_forward 15
Core_1_LLC_wq_merged 0
Core_1_LLC_wq_to_cache 1861132
Core_1_LLC_wq_full 0

Core_1_LLC_pq_access 0
Core_1_LLC_pq_forward 0
Core_1_LLC_pq_merged 0
Core_1_LLC_pq_to_cache 0
Core_1_LLC_pq_full 0

Core_1_LLC_acc_epochs 605038
Core_1_LLC_acc_level_0 605038
Core_1_LLC_acc_level_1 0
Core_1_LLC_acc_level_2 0
Core_1_LLC_acc_level_3 0
Core_1_LLC_acc_level_4 0
Core_1_LLC_acc_level_5 0
Core_1_LLC_acc_level_6 0
Core_1_LLC_acc_level_7 0
Core_1_LLC_acc_level_8 0
Core_1_LLC_acc_level_9 0

Core_1_major_page_fault 0
Core_1_minor_page_fault 52291

Core_2_instructions 150000000
Core_2_cycles 505670377
Core_2_IPC 0.29664

Core_2_branch_prediction_accuracy 97.73248
Core_2_branch_MPKI 3.08385
Core_2_average_ROB_occupancy_at_mispredict 105.92526

Core_2_L1D_total_access 16734666
Core_2_L1D_total_hit 15538307
Core_2_L1D_total_miss 1196359
Core_2_L1D_loads 11366748
Core_2_L1D_load_hit 10340327
Core_2_L1D_load_miss 1026421
Core_2_L1D_RFOs 5367918
Core_2_L1D_RFO_hit 5197980
Core_2_L1D_RFO_miss 169938
Core_2_L1D_prefetches 0
Core_2_L1D_prefetch_hit 0
Core_2_L1D_prefetch_miss 0
Core_2_L1D_writebacks 0
Core_2_L1D_writeback_hit 0
Core_2_L1D_writeback_miss 0
Core_2_L1D_prefetch_requested 0
Core_2_L1D_prefetch_dropped 0
Core_2_L1D_prefetch_issued 0
Core_2_L1D_prefetch_filled 0
Core_2_L1D_prefetch_useful 0
Core_2_L1D_prefetch_useless 0
Core_2_L1D_prefetch_late 0
Core_2_L1D_average_miss_latency 250.78127

Core_2_L1D_rq_access 23307584
Core_2_L1D_rq_forward 0
Core_2_L1D_rq_merged 9481932
Core_2_L1D_rq_to_cache 13825176
Core_2_L1D_rq_full 0

Core_2_L1D_wq_access 7200566
Core_2_L1D_wq_forward 476
Core_2_L1D_wq_merged 169770
Core_2_L1D_wq_to_cache 7030796
Core_2_L1D_wq_full 0

Core_2_L1D_pq_access 0
Core_2_L1D_pq_forward 0
Core_2_L1D_pq_merged 0
Core_2_L1D_pq_to_cache 0
Core_2_L1D_pq_full 0

Core_2_L1D_acc_epochs 251508
Core_2_L1D_acc_level_0 251508
Core_2_L1D_acc_level_1 0
Core_2_L1D_acc_level_2 0
Core_2_L1D_acc_level_3 0
Core_2_L1D_acc_level_4 0
Core_2_L1D_acc_level_5 0
Core_2_L1D_acc_level_6 0
Core_2_L1D_acc_level_7 0
Core_2_L1D_acc_level_8 0
Core_2_L1D_acc_level_9 0

Core_2_L1I_total_access 32482333
Core_2_L1I_total_hit 32164854
Core_2_L1I_total_miss 317479
Core_2_L1I_loads 32482333
Core_2_L1I_load_hit 32164854
Core_2_L1I_load_miss 317479
Core_2_L1I_RFOs 0
Core_2_L1I_RFO_hit 0
Core_2_L1I_RFO_miss 0
Core_2_L1I_prefetches 0
Core_2_L1I_prefetch_hit 0
Core_2_L1I_prefetch_miss 0
Core_2_L1I_writebacks 0
Core_2_L1I_writeback_hit 0
Core_2_L1I_writeback_miss 0
Core_2_L1I_prefetch_requested 0
Core_2_L1I_prefetch_dropped 0
Core_2_L1I_prefetch_issued 0
Core_2_L1I_prefetch_filled 0
Core_2_L1I_prefetch_useful 0
Core_2_L1I_prefetch_useless 0
Core_2_L1I_prefetch_late 0
Core_2_L1I_average_miss_latency 123.76574

Core_2_L1I_rq_access 181927811
Core_2_L1I_rq_forward 0
Core_2_L1I_rq_merged 142781116
Core_2_L1I_rq_to_cache 39146695
Core_2_L1I_rq_full 0

Core_2_L1I_wq_access 0
Core_2_L1I_wq_forward 0
Core_2_L1I_wq_merged 0
Core_2_L1I_wq_to_cache 0
Core_2_L1I_wq_full 0

Core_2_L1I_pq_access 0
Core_2_L1I_pq_forward 0
Core_2_L1I_pq_merged 0
Core_2_L1I_pq_to_cache 0
Core_2_L1I_pq_full 0

Core_2_L1I_acc_epochs 251508
Core_2_L1I_acc_level_0 251508
Core_2_L1I_acc_level_1 0
Core_2_L1I_acc_level_2 0
Core_2_L1I_acc_level_3 0
Core_2_L1I_acc_level_4 0
Core_2_L1I_acc_level_5 0
Core_2_L1I_acc_level_6 0
Core_2_L1I_acc_level_7 0
Core_2_L1I_acc_level_8 0
Core_2_L1I_acc_level_9 0

Core_2_L2C_total_access 1917181
Core_2_L2C_total_hit 686260
Core_2_L2C_total_miss 1230921
Core_2_L2C_loads 1343889
Core_2_L2C_load_hit 261405
Core_2_L2C_load_miss 1082484
Core_2_L2C_RFOs 169933
Core_2_L2C_RFO_hit 23108
Core_2_L2C_RFO_miss 146825
Core_2_L2C_prefetches 0
Core_2_L2C_prefetch_hit 0
Core_2_L2C_prefetch_miss 0
Core_2_L2C_writebacks 403359
Core_2_L2C_writeback_hit 401747
Core_2_L2C_writeback_miss 1612
Core_2_L2C_prefetch_requested 0
Core_2_L2C_prefetch_dropped 0
Core_2_L2C_prefetch_issued 0
Core_2_L2C_prefetch_filled 0
Core_2_L2C_prefetch_useful 0
Core_2_L2C_prefetch_useless 0
Core_2_L2C_prefetch_late 0
Core_2_L2C_average_miss_latency 218.42331

Core_2_L2C_rq_access 1880322
Core_2_L2C_rq_forward 0
Core_2_L2C_rq_merged 0
Core_2_L2C_rq_to_cache 1880304
Core_2_L2C_rq_full 0

Core_2_L2C_wq_access 481826
Core_2_L2C_wq_forward 18
Core_2_L2C_wq_merged 0
Core_2_L2C_wq_to_cache 481826
Core_2_L2C_wq_full 0

Core_2_L2C_pq_access 0
Core_2_L2C_pq_forward 0
Core_2_L2C_pq_merged 0
Core_2_L2C_pq_to_cache 0
Core_2_L2C_pq_full 0

Core_2_L2C_acc_epochs 251508
Core_2_L2C_acc_level_0 251508
Core_2_L2C_acc_level_1 0
Core_2_L2C_acc_level_2 0
Core_2_L2C_acc_level_3 0
Core_2_L2C_acc_level_4 0
Core_2_L2C_acc_level_5 0
Core_2_L2C_acc_level_6 0
Core_2_L2C_acc_level_7 0
Core_2_L2C_acc_level_8 0
Core_2_L2C_acc_level_9 0

Core_2_LLC_total_access 1595824
Core_2_LLC_total_hit 594287
Core_2_LLC_total_miss 1001537
Core_2_LLC_loads 1082484
Core_2_LLC_load_hit 373319
Core_2_LLC_load_miss 709165
Core_2_LLC_RFOs 146824
Core_2_LLC_RFO_hit 35075
Core_2_LLC_RFO_miss 111749
Core_2_LLC_prefetches 0
Core_2_LLC_prefetch_hit 0
Core_2_LLC_prefetch_miss 0
Core_2_LLC_writebacks 366516
Core_2_LLC_writeback_hit 185893
Core_2_LLC_writeback_miss 180623
Core_2_LLC_prefetch_requested 0
Core_2_LLC_prefetch_dropped 0
Core_2_LLC_prefetch_issued 0
Core_2_LLC_prefetch_filled 0
Core_2_LLC_prefetch_useful 0
Core_2_LLC_prefetch_useless 0
Core_2_LLC_prefetch_late 0
Core_2_LLC_average_miss_latency 834.11958

Core_2_LLC_rq_access 6596413
Core_2_LLC_rq_forward 0
Core_2_LLC_rq_merged 0
Core_2_LLC_rq_to_cache 6596398
Core_2_LLC_rq_full 0

Core_2_LLC_wq_access 1861132
Core_2_LLC_wq_forward 15
Core_2_LLC_wq_merged 0
Core_2_LLC_wq_to_cache 1861132
Core_2_LLC_wq_full 0

Core_2_LLC_pq_access 0
Core_2_LLC_pq_forward 0
Core_2_LLC_pq_merged 0
Core_2_LLC_pq_to_cache 0
Core_2_LLC_pq_full 0

Core_2_LLC_acc_epochs 605038
Core_2_LLC_acc_level_0 605038
Core_2_LLC_acc_level_1 0
Core_2_LLC_acc_level_2 0
Core_2_LLC_acc_level_3 0
Core_2_LLC_acc_level_4 0
Core_2_LLC_acc_level_5 0
Core_2_LLC_acc_level_6 0
Core_2_LLC_acc_level_7 0
Core_2_LLC_acc_level_8 0
Core_2_LLC_acc_level_9 0

Core_2_major_page_fault 0
Core_2_minor_page_fault 49420

Core_3_instructions 150000001
Core_3_cycles 526023063
Core_3_IPC 0.28516

Core_3_branch_prediction_accuracy 97.73775
Core_3_branch_MPKI 3.06682
Core_3_average_ROB_occupancy_at_mispredict 107.65633

Core_3_L1D_total_access 16864447
Core_3_L1D_total_hit 15584200
Core_3_L1D_total_miss 1280247
Core_3_L1D_loads 11443786
Core_3_L1D_load_hit 10347482
Core_3_L1D_load_miss 1096304
Core_3_L1D_RFOs 5420661
Core_3_L1D_RFO_hit 5236718
Core_3_L1D_RFO_miss 183943
Core_3_L1D_prefetches 0
Core_3_L1D_prefetch_hit 0
Core_3_L1D_prefetch_miss 0
Core_3_L1D_writebacks 0
Core_3_L1D_writeback_hit 0
Core_3_L1D_writeback_miss 0
Core_3_L1D_prefetch_requested 0
Core_3_L1D_prefetch_dropped 0
Core_3_L1D_prefetch_issued 0
Core_3_L1D_prefetch_filled 0
Core_3_L1D_prefetch_useful 0
Core_3_L1D_prefetch_useless 0
Core_3_L1D_prefetch_late 0
Core_3_L1D_average_miss_latency 243.00791

Core_3_L1D_rq_access 22568452
Core_3_L1D_rq_forward 0
Core_3_L1D_rq_merged 9213434
Core_3_L1D_rq_to_cache 13354732
Core_3_L1D_rq_full 0

Core_3_L1D_wq_access 7015219
Core_3_L1D_wq_forward 286
Core_3_L1D_wq_merged 166071
Core_3_L1D_wq_to_cache 6849148
Core_3_L1D_wq_full 0

Core_3_L1D_pq_access 0
Core_3_L1D_pq_forward 0
Core_3_L1D_pq_merged 0
Core_3_L1D_pq_to_cache 0
Core_3_L1D_pq_full 0

Core_3_L1D_acc_epochs 249091
Core_3_L1D_acc_level_0 249091
Core_3_L1D_acc_level_1 0
Core_3_L1D_acc_level_2 0
Core_3_L1D_acc_level_3 0
Core_3_L1D_acc_level_4 0
Core_3_L1D_acc_level_5 0
Core_3_L1D_acc_level_6 0
Core_3_L1D_acc_level_7 0
Core_3_L1D_acc_level_8 0
Core_3_L1D_acc_level_9 0

Core_3_L1I_total_access 32246951
Core_3_L1I_total_hit 31924117
Core_3_L1I_total_miss 322834
Core_3_L1I_loads 32246951
Core_3_L1I_load_hit 31924117
Core_3_L1I_load_miss 322834
Core_3_L1I_RFOs 0
Core_3_L1I_RFO_hit 0
Core_3_L1I_RFO_miss 0
Core_3_L1I_prefetches 0
Core_3_L1I_prefetch_hit 0
Core_3_L1I_prefetch_miss 0
Core_3_L1I_writebacks 0
Core_3_L1I_writeback_hit 0
Core_3_L1I_writeback_miss 0
Core_3_L1I_prefetch_requested 0
Core_3_L1I_prefetch_dropped 0
Core_3_L1I_prefetch_issued 0
Core_3_L1I_prefetch_filled 0
Core_3_L1I_prefetch_useful 0
Core_3_L1I_prefetch_useless 0
Core_3_L1I_prefetch_late 0
Core_3_L1I_average_miss_latency 111.35091

Core_3_L1I_rq_access 173329809
Core_3_L1I_rq_forward 0
Core_3_L1I_rq_merged 136110698
Core_3_L1I_rq_to_cache 37219111
Core_3_L1I_rq_full 0

Core_3_L1I_wq_access 0
Core_3_L1I_wq_forward 0
Core_3_L1I_wq_merged 0
Core_3_L1I_wq_to_cache 0
Core_3_L1I_wq_full 0

Core_3_L1I_pq_access 0
Core_3_L1I_pq_forward 0
Core_3_L1I_pq_merged 0
Core_3_L1I_pq_to_cache 0
Core_3_L1I_pq_full 0

Core_3_L1I_acc_epochs 249091
Core_3_L1I_acc_level_0 249091
Core_3_L1I_acc_level_1 0
Core_3_L1I_acc_level_2 0
Core_3_L1I_acc_level_3 0
Core_3_L1I_acc_level_4 0
Core_3_L1I_acc_level_5 0
Core_3_L1I_acc_level_6 0
Core_3_L1I_acc_level_7 0
Core_3_L1I_acc_level_8 0
Core_3_L1I_acc_level_9 0

Core_3_L2C_total_access 2023598
Core_3_L2C_total_hit 750703
Core_3_L2C_total_miss 1272895
Core_3_L2C_loads 1419132
Core_3_L2C_load_hit 306561
Core_3_L2C_load_miss 1112571
Core_3_L2C_RFOs 183928
Core_3_L2C_RFO_hit 25173
Core_3_L2C_RFO_miss 158755
Core_3_L2C_prefetches 0
Core_3_L2C_prefetch_hit 0
Core_3_L2C_prefetch_miss 0
Core_3_L2C_writebacks 420538
Core_3_L2C_writeback_hit 418969
Core_3_L2C_writeback_miss 1569
Core_3_L2C_prefetch_requested 0
Core_3_L2C_prefetch_dropped 0
Core_3_L2C_prefetch_issued 0
Core_3_L2C_prefetch_filled 0
Core_3_L2C_prefetch_useful 0
Core_3_L2C_prefetch_useless 0
Core_3_L2C_prefetch_late 0
Core_3_L2C_average_miss_latency 216.42573

Core_3_L2C_rq_access 1879405
Core_3_L2C_rq_forward 0
Core_3_L2C_rq_merged 0
Core_3_L2C_rq_to_cache 1879384
Core_3_L2C_rq_full 0

Core_3_L2C_wq_access 483091
Core_3_L2C_wq_forward 21
Core_3_L2C_wq_merged 0
Core_3_L2C_wq_to_cache 483091
Core_3_L2C_wq_full 0

Core_3_L2C_pq_access 0
Core_3_L2C_pq_forward 0
Core_3_L2C_pq_merged 0
Core_3_L2C_pq_to_cache 0
Core_3_L2C_pq_full 0

Core_3_L2C_acc_epochs 249091
Core_3_L2C_acc_level_0 249091
Core_3_L2C_acc_level_1 0
Core_3_L2C_acc_level_2 0
Core_3_L2C_acc_level_3 0
Core_3_L2C_acc_level_4 0
Core_3_L2C_acc_level_5 0
Core_3_L2C_acc_level_6 0
Core_3_L2C_acc_level_7 0
Core_3_L2C_acc_level_8 0
Core_3_L2C_acc_level_9 0

Core_3_LLC_total_access 1649452
Core_3_LLC_total_hit 568840
Core_3_LLC_total_miss 1080612
Core_3_LLC_loads 1112570
Core_3_LLC_load_hit 335398
Core_3_LLC_load_miss 777172
Core_3_LLC_RFOs 158753
Core_3_LLC_RFO_hit 41889
Core_3_LLC_RFO_miss 116864
Core_3_LLC_prefetches 0
Core_3_LLC_prefetch_hit 0
Core_3_LLC_prefetch_miss 0
Core_3_LLC_writebacks 378129
Core_3_LLC_writeback_hit 191553
Core_3_LLC_writeback_miss 186576
Core_3_LLC_prefetch_requested 0
Core_3_LLC_prefetch_dropped 0
Core_3_LLC_prefetch_issued 0
Core_3_LLC_prefetch_filled 0
Core_3_LLC_prefetch_useful 0
Core_3_LLC_prefetch_useless 0
Core_3_LLC_prefetch_late 0
Core_3_LLC_average_miss_latency 773.08194

Core_3_LLC_rq_access 6596413
Core_3_LLC_rq_forward 0
Core_3_LLC_rq_merged 0
Core_3_LLC_rq_to_cache 6596398
Core_3_LLC_rq_full 0

Core_3_LLC_wq_access 1861132
Core_3_LLC_wq_forward 15
Core_3_LLC_wq_merged 0
Core_3_LLC_wq_to_cache 1861132
Core_3_LLC_wq_full 0

Core_3_LLC_pq_access 0
Core_3_LLC_pq_forward 0
Core_3_LLC_pq_merged 0
Core_3_LLC_pq_to_cache 0
Core_3_LLC_pq_full 0

Core_3_LLC_acc_epochs 605038
Core_3_LLC_acc_level_0 605038
Core_3_LLC_acc_level_1 0
Core_3_LLC_acc_level_2 0
Core_3_LLC_acc_level_3 0
Core_3_LLC_acc_level_4 0
Core_3_LLC_acc_level_5 0
Core_3_LLC_acc_level_6 0
Core_3_LLC_acc_level_7 0
Core_3_LLC_acc_level_8 0
Core_3_LLC_acc_level_9 0

Core_3_major_page_fault 0
Core_3_minor_page_fault 51989

Channel_0_RQ_row_buffer_hit 192191
Channel_0_RQ_row_buffer_miss 1950344
Channel_0_WQ_row_buffer_hit 129518
Channel_0_WQ_row_buffer_miss 639832
Channel_0_WQ_full 0
Channel_0_dbus_congested 552766

Channel_1_RQ_row_buffer_hit 190577
Channel_1_RQ_row_buffer_miss 1944930
Channel_1_WQ_row_buffer_hit 131271
Channel_1_WQ_row_buffer_miss 643589
Channel_1_WQ_full 0
Channel_1_dbus_congested 554911

avg_congested_cycle 10

DRAM_bw_pochs 2420149
DRAM_bw_level_0 2313309
DRAM_bw_level_1 90198
DRAM_bw_level_2 14237
DRAM_bw_level_3 2405
