*************************************************
   ChampSim Multicore Out-of-Order Simulator
   Last compiled: Mar 31 2025 20:14:32
*************************************************
parsing config file: /data3/config/bingo.ini

trace_0 /data3/CASSANDRA/traces/cassandra_phase3_core0.trace.xz
trace_1 /data3/CASSANDRA/traces/cassandra_phase3_core1.trace.xz
trace_2 /data3/CASSANDRA/traces/cassandra_phase3_core2.trace.xz
trace_3 /data3/CASSANDRA/traces/cassandra_phase3_core3.trace.xz
adding L2C_PREFETCHER: Bingo
adding L2C_PREFETCHER: Bingo
adding L2C_PREFETCHER: Bingo
adding L2C_PREFETCHER: Bingo
Initialize SHIP state
warmup_instructions 50000000
simulation_instructions 150000000
champsim_seed 8754
measure_ipc 0
measure_ipc_epoch 1000
measure_dram_bw 1
measure_dram_bw_epoch 256
measure_cache_acc 1
measure_cache_acc_epoch 1024
l1d_perfect 0
l2c_perfect 0
llc_perfect 0
l1d_semi_perfect 0
l2c_semi_perfect 0
llc_semi_perfect 0
semi_perfect_cache_page_buffer_size 64

num_cpus 4
cpu_freq 4000
dram_io_freq 2400
page_size 4096
block_size 64
max_read_per_cycle 8
max_fill_per_cycle 1
dram_channels 2
log2_dram_channels 1
dram_ranks 1
dram_banks 8
dram_rows 65536
dram_columns 128
dram_row_size 8
dram_size 8192
dram_pages 2097152

fetch_width 6
decode_width 6
exec_width 4
lq_width 2
sq_width 2
retire_width 4
scheduler_size 128
branch_mispredict_penalty 20
rob_size 256
lq_size 72
sq_size 56
num_instr_destinations_sparc 4
num_instr_destinations 2
num_instr_sources 4

itlb_set 16
itlb_way 8
itlb_rq_size 16
itlb_wq_size 16
itlb_pq_size 0
itlb_mshr_size 8
itlb_latency 1

dtlb_set 16
dtlb_way 4
dtlb_rq_size 16
dtlb_wq_size 16
dtlb_pq_size 0
dtlb_mshr_size 8
dtlb_latency 1

stlb_set 128
stlb_way 12
stlb_rq_size 32
stlb_wq_size 32
stlb_pq_size 0
stlb_mshr_size 16
stlb_latency 8

l1i_size 32
l1i_set 64
l1i_way 8
l1i_rq_size 64
l1i_wq_size 64
l1i_pq_size 8
l1i_mshr_size 8
l1i_latency 1

l1d_size 32
l1d_set 64
l1d_way 8
l1d_rq_size 64
l1d_wq_size 64
l1d_pq_size 8
l1d_mshr_size 16
l1d_latency 4

l2c_size 256
l2c_set 512
l2c_way 8
l2c_rq_size 32
l2c_wq_size 32
l2c_pq_size 32
l2c_mshr_size 32
l2c_latency 10

llc_size 8192
llc_set 8192
llc_way 16
llc_rq_size 128
llc_wq_size 128
llc_pq_size 128
llc_mshr_size 256
llc_latency 20

dram_channel_width 8
dram_wq_size 64
dram_rq_size 64
tRP 15
tRCD 15
tCAS 12.5
dram_dbus_turn_around_time 30
dram_write_high_wm 56
dram_write_low_wm 48
min_dram_writes_per_switch 16
dram_mtps 2400
dram_dbus_return_time 13

bingo_region_size 2048
bingo_pattern_len 32
bingo_pc_width 16
bingo_min_addr_width 5
bingo_max_addr_width 16
bingo_ft_size 64
bingo_at_size 128
bingo_pht_size 4096
bingo_pht_ways 16
bingo_pf_streamer_size 128
bingo_debug_level 0
bingo_l1d_thresh 1.01
bingo_l2c_thresh 0.8
bingo_llc_thresh 0.05
bingo_pc_address_fill_level L2


Heartbeat CPU  0 instructions:    1000001 cycles:     326399 heartbeat IPC: 3.06374 cumulative IPC: 3.06374 (Simulation time: 0 hr 0 min 4 sec) 
Heartbeat CPU  2 instructions:    1000001 cycles:     405621 heartbeat IPC: 2.46536 cumulative IPC: 2.46536 (Simulation time: 0 hr 0 min 5 sec) 
Heartbeat CPU  3 instructions:    1000000 cycles:     468600 heartbeat IPC: 2.13402 cumulative IPC: 2.13402 (Simulation time: 0 hr 0 min 7 sec) 
Heartbeat CPU  1 instructions:    1000002 cycles:     481955 heartbeat IPC: 2.07489 cumulative IPC: 2.07489 (Simulation time: 0 hr 0 min 7 sec) 
Heartbeat CPU  0 instructions:    2000000 cycles:     655932 heartbeat IPC: 3.03459 cumulative IPC: 3.04910 (Simulation time: 0 hr 0 min 9 sec) 
Heartbeat CPU  2 instructions:    2000000 cycles:     732922 heartbeat IPC: 3.05529 cumulative IPC: 2.72880 (Simulation time: 0 hr 0 min 11 sec) 
Heartbeat CPU  3 instructions:    2000003 cycles:     799304 heartbeat IPC: 3.02386 cumulative IPC: 2.50218 (Simulation time: 0 hr 0 min 12 sec) 
Heartbeat CPU  0 instructions:    3000003 cycles:    1046942 heartbeat IPC: 2.55749 cumulative IPC: 2.86549 (Simulation time: 0 hr 0 min 15 sec) 
Heartbeat CPU  2 instructions:    3000000 cycles:    1059797 heartbeat IPC: 3.05927 cumulative IPC: 2.83073 (Simulation time: 0 hr 0 min 15 sec) 
Heartbeat CPU  3 instructions:    3000000 cycles:    1126130 heartbeat IPC: 3.05972 cumulative IPC: 2.66399 (Simulation time: 0 hr 0 min 16 sec) 
Heartbeat CPU  1 instructions:    2000003 cycles:    1187571 heartbeat IPC: 1.41720 cumulative IPC: 1.68411 (Simulation time: 0 hr 0 min 18 sec) 
Heartbeat CPU  0 instructions:    4000000 cycles:    1375327 heartbeat IPC: 3.04520 cumulative IPC: 2.90840 (Simulation time: 0 hr 0 min 21 sec) 
Heartbeat CPU  2 instructions:    4000000 cycles:    1384801 heartbeat IPC: 3.07689 cumulative IPC: 2.88850 (Simulation time: 0 hr 0 min 21 sec) 
Heartbeat CPU  3 instructions:    4000000 cycles:    1452671 heartbeat IPC: 3.06240 cumulative IPC: 2.75355 (Simulation time: 0 hr 0 min 22 sec) 
Heartbeat CPU  1 instructions:    3000003 cycles:    1701739 heartbeat IPC: 1.94489 cumulative IPC: 1.76290 (Simulation time: 0 hr 0 min 26 sec) 
Heartbeat CPU  2 instructions:    5000002 cycles:    1710054 heartbeat IPC: 3.07454 cumulative IPC: 2.92389 (Simulation time: 0 hr 0 min 26 sec) 
Heartbeat CPU  0 instructions:    5000003 cycles:    1712149 heartbeat IPC: 2.96894 cumulative IPC: 2.92031 (Simulation time: 0 hr 0 min 26 sec) 
Heartbeat CPU  3 instructions:    5000001 cycles:    1862934 heartbeat IPC: 2.43746 cumulative IPC: 2.68394 (Simulation time: 0 hr 0 min 28 sec) 
Heartbeat CPU  1 instructions:    4000000 cycles:    2025327 heartbeat IPC: 3.09034 cumulative IPC: 1.97499 (Simulation time: 0 hr 0 min 31 sec) 
Heartbeat CPU  2 instructions:    6000003 cycles:    2035714 heartbeat IPC: 3.07069 cumulative IPC: 2.94737 (Simulation time: 0 hr 0 min 31 sec) 
Heartbeat CPU  0 instructions:    6000000 cycles:    2180340 heartbeat IPC: 2.13587 cumulative IPC: 2.75186 (Simulation time: 0 hr 0 min 33 sec) 
Heartbeat CPU  3 instructions:    6000003 cycles:    2300644 heartbeat IPC: 2.28462 cumulative IPC: 2.60797 (Simulation time: 0 hr 0 min 35 sec) 
Heartbeat CPU  1 instructions:    5000000 cycles:    2350223 heartbeat IPC: 3.07791 cumulative IPC: 2.12746 (Simulation time: 0 hr 0 min 36 sec) 
Heartbeat CPU  0 instructions:    7000003 cycles:    2505079 heartbeat IPC: 3.07941 cumulative IPC: 2.79432 (Simulation time: 0 hr 0 min 38 sec) 
Heartbeat CPU  2 instructions:    7000002 cycles:    2602921 heartbeat IPC: 1.76302 cumulative IPC: 2.68929 (Simulation time: 0 hr 0 min 40 sec) 
Heartbeat CPU  3 instructions:    7000000 cycles:    2625734 heartbeat IPC: 3.07606 cumulative IPC: 2.66592 (Simulation time: 0 hr 0 min 40 sec) 
Heartbeat CPU  1 instructions:    6000001 cycles:    2711256 heartbeat IPC: 2.76983 cumulative IPC: 2.21300 (Simulation time: 0 hr 0 min 42 sec) 
Heartbeat CPU  0 instructions:    8000000 cycles:    2814824 heartbeat IPC: 3.22845 cumulative IPC: 2.84210 (Simulation time: 0 hr 0 min 44 sec) 
Heartbeat CPU  3 instructions:    8000000 cycles:    2950995 heartbeat IPC: 3.07445 cumulative IPC: 2.71095 (Simulation time: 0 hr 0 min 46 sec) 
Heartbeat CPU  2 instructions:    8000000 cycles:    2957198 heartbeat IPC: 2.82264 cumulative IPC: 2.70526 (Simulation time: 0 hr 0 min 46 sec) 
Heartbeat CPU  1 instructions:    7000000 cycles:    3037702 heartbeat IPC: 3.06329 cumulative IPC: 2.30437 (Simulation time: 0 hr 0 min 48 sec) 
Heartbeat CPU  0 instructions:    9000001 cycles:    3140998 heartbeat IPC: 3.06585 cumulative IPC: 2.86533 (Simulation time: 0 hr 0 min 49 sec) 
Heartbeat CPU  2 instructions:    9000001 cycles:    3278599 heartbeat IPC: 3.11138 cumulative IPC: 2.74508 (Simulation time: 0 hr 0 min 52 sec) 
Heartbeat CPU  3 instructions:    9000002 cycles:    3335432 heartbeat IPC: 2.60121 cumulative IPC: 2.69830 (Simulation time: 0 hr 0 min 53 sec) 
Heartbeat CPU  1 instructions:    8000000 cycles:    3362143 heartbeat IPC: 3.08222 cumulative IPC: 2.37943 (Simulation time: 0 hr 0 min 53 sec) 
Heartbeat CPU  0 instructions:   10000001 cycles:    3538105 heartbeat IPC: 2.51821 cumulative IPC: 2.82637 (Simulation time: 0 hr 0 min 56 sec) 
Heartbeat CPU  2 instructions:   10000001 cycles:    3600429 heartbeat IPC: 3.10723 cumulative IPC: 2.77745 (Simulation time: 0 hr 0 min 57 sec) 
Heartbeat CPU  3 instructions:   10000003 cycles:    3662060 heartbeat IPC: 3.06159 cumulative IPC: 2.73070 (Simulation time: 0 hr 0 min 58 sec) 
Heartbeat CPU  1 instructions:    9000002 cycles:    3682980 heartbeat IPC: 3.11685 cumulative IPC: 2.44367 (Simulation time: 0 hr 0 min 59 sec) 
Heartbeat CPU  2 instructions:   11000002 cycles:    3920582 heartbeat IPC: 3.12351 cumulative IPC: 2.80571 (Simulation time: 0 hr 1 min 3 sec) 
Heartbeat CPU  3 instructions:   11000001 cycles:    3987926 heartbeat IPC: 3.06874 cumulative IPC: 2.75833 (Simulation time: 0 hr 1 min 4 sec) 
Heartbeat CPU  1 instructions:   10000003 cycles:    4007334 heartbeat IPC: 3.08305 cumulative IPC: 2.49543 (Simulation time: 0 hr 1 min 4 sec) 
Heartbeat CPU  0 instructions:   11000003 cycles:    4045997 heartbeat IPC: 1.96893 cumulative IPC: 2.71874 (Simulation time: 0 hr 1 min 5 sec) 
Heartbeat CPU  0 instructions:   12000000 cycles:    4367290 heartbeat IPC: 3.11241 cumulative IPC: 2.74770 (Simulation time: 0 hr 1 min 10 sec) 
Heartbeat CPU  3 instructions:   12000000 cycles:    4372502 heartbeat IPC: 2.60026 cumulative IPC: 2.74442 (Simulation time: 0 hr 1 min 10 sec) 
Heartbeat CPU  2 instructions:   12000000 cycles:    4419638 heartbeat IPC: 2.00378 cumulative IPC: 2.71515 (Simulation time: 0 hr 1 min 11 sec) 
Heartbeat CPU  1 instructions:   11000000 cycles:    4427033 heartbeat IPC: 2.38265 cumulative IPC: 2.48473 (Simulation time: 0 hr 1 min 11 sec) 
Heartbeat CPU  0 instructions:   13000002 cycles:    4681988 heartbeat IPC: 3.17766 cumulative IPC: 2.77660 (Simulation time: 0 hr 1 min 15 sec) 
Heartbeat CPU  2 instructions:   13000003 cycles:    4787626 heartbeat IPC: 2.71749 cumulative IPC: 2.71533 (Simulation time: 0 hr 1 min 17 sec) 
Heartbeat CPU  1 instructions:   12000000 cycles:    4794070 heartbeat IPC: 2.72452 cumulative IPC: 2.50309 (Simulation time: 0 hr 1 min 17 sec) 
Heartbeat CPU  3 instructions:   13000002 cycles:    4829237 heartbeat IPC: 2.18946 cumulative IPC: 2.69194 (Simulation time: 0 hr 1 min 17 sec) 
Heartbeat CPU  2 instructions:   14000000 cycles:    5150807 heartbeat IPC: 2.75344 cumulative IPC: 2.71802 (Simulation time: 0 hr 1 min 21 sec) 
Heartbeat CPU  0 instructions:   14000002 cycles:    5162576 heartbeat IPC: 2.08078 cumulative IPC: 2.71182 (Simulation time: 0 hr 1 min 22 sec) 
Heartbeat CPU  3 instructions:   14000003 cycles:    5229987 heartbeat IPC: 2.49532 cumulative IPC: 2.67687 (Simulation time: 0 hr 1 min 23 sec) 
Heartbeat CPU  1 instructions:   13000001 cycles:    5462651 heartbeat IPC: 1.49571 cumulative IPC: 2.37980 (Simulation time: 0 hr 1 min 26 sec) 
Heartbeat CPU  2 instructions:   15000000 cycles:    5475161 heartbeat IPC: 3.08305 cumulative IPC: 2.73965 (Simulation time: 0 hr 1 min 26 sec) 
Heartbeat CPU  3 instructions:   15000001 cycles:    5557037 heartbeat IPC: 3.05763 cumulative IPC: 2.69928 (Simulation time: 0 hr 1 min 28 sec) 
Heartbeat CPU  0 instructions:   15000001 cycles:    5662715 heartbeat IPC: 1.99944 cumulative IPC: 2.64891 (Simulation time: 0 hr 1 min 29 sec) 
Heartbeat CPU  1 instructions:   14000002 cycles:    5783354 heartbeat IPC: 3.11815 cumulative IPC: 2.42074 (Simulation time: 0 hr 1 min 31 sec) 
Heartbeat CPU  2 instructions:   16000000 cycles:    5797046 heartbeat IPC: 3.10670 cumulative IPC: 2.76003 (Simulation time: 0 hr 1 min 31 sec) 
Heartbeat CPU  3 instructions:   16000000 cycles:    5958857 heartbeat IPC: 2.48867 cumulative IPC: 2.68508 (Simulation time: 0 hr 1 min 34 sec) 
Heartbeat CPU  0 instructions:   16000000 cycles:    6117585 heartbeat IPC: 2.19843 cumulative IPC: 2.61541 (Simulation time: 0 hr 1 min 36 sec) 
Heartbeat CPU  1 instructions:   15000000 cycles:    6153922 heartbeat IPC: 2.69855 cumulative IPC: 2.43747 (Simulation time: 0 hr 1 min 37 sec) 
Heartbeat CPU  2 instructions:   17000002 cycles:    6175004 heartbeat IPC: 2.64580 cumulative IPC: 2.75304 (Simulation time: 0 hr 1 min 37 sec) 
Heartbeat CPU  3 instructions:   17000003 cycles:    6322299 heartbeat IPC: 2.75148 cumulative IPC: 2.68890 (Simulation time: 0 hr 1 min 39 sec) 
Heartbeat CPU  1 instructions:   16000000 cycles:    6516176 heartbeat IPC: 2.76049 cumulative IPC: 2.45543 (Simulation time: 0 hr 1 min 42 sec) 
Heartbeat CPU  2 instructions:   18000003 cycles:    6546147 heartbeat IPC: 2.69438 cumulative IPC: 2.74971 (Simulation time: 0 hr 1 min 43 sec) 
Heartbeat CPU  0 instructions:   17000002 cycles:    6580782 heartbeat IPC: 2.15891 cumulative IPC: 2.58328 (Simulation time: 0 hr 1 min 44 sec) 
Heartbeat CPU  3 instructions:   18000000 cycles:    6645723 heartbeat IPC: 3.09191 cumulative IPC: 2.70851 (Simulation time: 0 hr 1 min 45 sec) 
Heartbeat CPU  1 instructions:   17000002 cycles:    6852471 heartbeat IPC: 2.97359 cumulative IPC: 2.48086 (Simulation time: 0 hr 1 min 48 sec) 
Heartbeat CPU  2 instructions:   19000002 cycles:    6871681 heartbeat IPC: 3.07187 cumulative IPC: 2.76497 (Simulation time: 0 hr 1 min 49 sec) 
Heartbeat CPU  0 instructions:   18000000 cycles:    6954927 heartbeat IPC: 2.67276 cumulative IPC: 2.58809 (Simulation time: 0 hr 1 min 50 sec) 
Heartbeat CPU  3 instructions:   19000003 cycles:    6968410 heartbeat IPC: 3.09899 cumulative IPC: 2.72659 (Simulation time: 0 hr 1 min 50 sec) 
Heartbeat CPU  2 instructions:   20000000 cycles:    7195712 heartbeat IPC: 3.08612 cumulative IPC: 2.77943 (Simulation time: 0 hr 1 min 54 sec) 
Heartbeat CPU  1 instructions:   18000000 cycles:    7256618 heartbeat IPC: 2.47434 cumulative IPC: 2.48049 (Simulation time: 0 hr 1 min 55 sec) 
Heartbeat CPU  0 instructions:   19000001 cycles:    7277658 heartbeat IPC: 3.09856 cumulative IPC: 2.61073 (Simulation time: 0 hr 1 min 56 sec) 
Heartbeat CPU  3 instructions:   20000000 cycles:    7291607 heartbeat IPC: 3.09408 cumulative IPC: 2.74288 (Simulation time: 0 hr 1 min 56 sec) 
Heartbeat CPU  1 instructions:   19000000 cycles:    7583906 heartbeat IPC: 3.05541 cumulative IPC: 2.50531 (Simulation time: 0 hr 2 min 0 sec) 
Heartbeat CPU  0 instructions:   20000000 cycles:    7660499 heartbeat IPC: 2.61205 cumulative IPC: 2.61080 (Simulation time: 0 hr 2 min 1 sec) 
Heartbeat CPU  2 instructions:   21000000 cycles:    7768145 heartbeat IPC: 1.74693 cumulative IPC: 2.70335 (Simulation time: 0 hr 2 min 3 sec) 
Heartbeat CPU  3 instructions:   21000000 cycles:    7775485 heartbeat IPC: 2.06664 cumulative IPC: 2.70080 (Simulation time: 0 hr 2 min 3 sec) 
Heartbeat CPU  1 instructions:   20000000 cycles:    7911386 heartbeat IPC: 3.05362 cumulative IPC: 2.52800 (Simulation time: 0 hr 2 min 5 sec) 
Heartbeat CPU  0 instructions:   21000002 cycles:    7983188 heartbeat IPC: 3.09897 cumulative IPC: 2.63053 (Simulation time: 0 hr 2 min 6 sec) 
Heartbeat CPU  0 instructions:   22000003 cycles:    8305527 heartbeat IPC: 3.10233 cumulative IPC: 2.64884 (Simulation time: 0 hr 2 min 11 sec) 
Heartbeat CPU  3 instructions:   22000001 cycles:    8305777 heartbeat IPC: 1.88576 cumulative IPC: 2.64876 (Simulation time: 0 hr 2 min 11 sec) 
Heartbeat CPU  2 instructions:   22000000 cycles:    8309465 heartbeat IPC: 1.84734 cumulative IPC: 2.64758 (Simulation time: 0 hr 2 min 11 sec) 
Heartbeat CPU  1 instructions:   21000000 cycles:    8356060 heartbeat IPC: 2.24884 cumulative IPC: 2.51315 (Simulation time: 0 hr 2 min 11 sec) 
Heartbeat CPU  3 instructions:   23000001 cycles:    8628254 heartbeat IPC: 3.10100 cumulative IPC: 2.66566 (Simulation time: 0 hr 2 min 16 sec) 
Heartbeat CPU  0 instructions:   23000000 cycles:    8630558 heartbeat IPC: 3.07662 cumulative IPC: 2.66495 (Simulation time: 0 hr 2 min 16 sec) 
Heartbeat CPU  1 instructions:   22000001 cycles:    8755805 heartbeat IPC: 2.50160 cumulative IPC: 2.51262 (Simulation time: 0 hr 2 min 18 sec) 
Heartbeat CPU  2 instructions:   23000002 cycles:    8758881 heartbeat IPC: 2.22511 cumulative IPC: 2.62591 (Simulation time: 0 hr 2 min 18 sec) 
Heartbeat CPU  3 instructions:   24000000 cycles:    8958638 heartbeat IPC: 3.02678 cumulative IPC: 2.67898 (Simulation time: 0 hr 2 min 21 sec) 
Heartbeat CPU  1 instructions:   23000000 cycles:    9085912 heartbeat IPC: 3.02932 cumulative IPC: 2.53139 (Simulation time: 0 hr 2 min 23 sec) 
Heartbeat CPU  0 instructions:   24000000 cycles:    9087425 heartbeat IPC: 2.18882 cumulative IPC: 2.64101 (Simulation time: 0 hr 2 min 23 sec) 
Heartbeat CPU  3 instructions:   25000001 cycles:    9333582 heartbeat IPC: 2.66707 cumulative IPC: 2.67850 (Simulation time: 0 hr 2 min 26 sec) 
Heartbeat CPU  2 instructions:   24000000 cycles:    9474772 heartbeat IPC: 1.39686 cumulative IPC: 2.53304 (Simulation time: 0 hr 2 min 27 sec) 
Heartbeat CPU  1 instructions:   24000000 cycles:    9500364 heartbeat IPC: 2.41282 cumulative IPC: 2.52622 (Simulation time: 0 hr 2 min 27 sec) 
Heartbeat CPU  0 instructions:   25000001 cycles:    9723463 heartbeat IPC: 1.57223 cumulative IPC: 2.57110 (Simulation time: 0 hr 2 min 31 sec) 
Heartbeat CPU  1 instructions:   25000002 cycles:    9857108 heartbeat IPC: 2.80314 cumulative IPC: 2.53624 (Simulation time: 0 hr 2 min 33 sec) 
Heartbeat CPU  2 instructions:   25000002 cycles:    9884314 heartbeat IPC: 2.44176 cumulative IPC: 2.52926 (Simulation time: 0 hr 2 min 33 sec) 
Heartbeat CPU  3 instructions:   26000001 cycles:    9951782 heartbeat IPC: 1.61760 cumulative IPC: 2.61260 (Simulation time: 0 hr 2 min 34 sec) 
Heartbeat CPU  0 instructions:   26000000 cycles:   10082285 heartbeat IPC: 2.78689 cumulative IPC: 2.57878 (Simulation time: 0 hr 2 min 36 sec) 
Heartbeat CPU  1 instructions:   26000001 cycles:   10374633 heartbeat IPC: 1.93227 cumulative IPC: 2.50611 (Simulation time: 0 hr 2 min 38 sec) 
Heartbeat CPU  2 instructions:   26000000 cycles:   10384311 heartbeat IPC: 2.00001 cumulative IPC: 2.50378 (Simulation time: 0 hr 2 min 39 sec) 
Heartbeat CPU  3 instructions:   27000002 cycles:   10594905 heartbeat IPC: 1.55491 cumulative IPC: 2.54839 (Simulation time: 0 hr 2 min 41 sec) 
Heartbeat CPU  0 instructions:   27000001 cycles:   10724421 heartbeat IPC: 1.55730 cumulative IPC: 2.51762 (Simulation time: 0 hr 2 min 43 sec) 
Heartbeat CPU  2 instructions:   27000001 cycles:   10891667 heartbeat IPC: 1.97100 cumulative IPC: 2.47896 (Simulation time: 0 hr 2 min 45 sec) 
Heartbeat CPU  1 instructions:   27000001 cycles:   10981610 heartbeat IPC: 1.64751 cumulative IPC: 2.45866 (Simulation time: 0 hr 2 min 46 sec) 
Heartbeat CPU  3 instructions:   28000000 cycles:   11210074 heartbeat IPC: 1.62557 cumulative IPC: 2.49775 (Simulation time: 0 hr 2 min 49 sec) 
Heartbeat CPU  0 instructions:   28000000 cycles:   11353229 heartbeat IPC: 1.59031 cumulative IPC: 2.46626 (Simulation time: 0 hr 2 min 50 sec) 
Heartbeat CPU  2 instructions:   28000000 cycles:   11462782 heartbeat IPC: 1.75096 cumulative IPC: 2.44269 (Simulation time: 0 hr 2 min 51 sec) 
Heartbeat CPU  1 instructions:   28000000 cycles:   11560354 heartbeat IPC: 1.72788 cumulative IPC: 2.42207 (Simulation time: 0 hr 2 min 52 sec) 
Heartbeat CPU  3 instructions:   29000001 cycles:   11714943 heartbeat IPC: 1.98071 cumulative IPC: 2.47547 (Simulation time: 0 hr 2 min 54 sec) 
Heartbeat CPU  0 instructions:   29000003 cycles:   11850177 heartbeat IPC: 2.01229 cumulative IPC: 2.44722 (Simulation time: 0 hr 2 min 56 sec) 
Heartbeat CPU  2 instructions:   29000001 cycles:   11967687 heartbeat IPC: 1.98057 cumulative IPC: 2.42319 (Simulation time: 0 hr 2 min 57 sec) 
Heartbeat CPU  1 instructions:   29000003 cycles:   12064001 heartbeat IPC: 1.98552 cumulative IPC: 2.40385 (Simulation time: 0 hr 2 min 58 sec) 
Heartbeat CPU  3 instructions:   30000000 cycles:   12246801 heartbeat IPC: 1.88020 cumulative IPC: 2.44962 (Simulation time: 0 hr 3 min 0 sec) 
Heartbeat CPU  0 instructions:   30000001 cycles:   12356149 heartbeat IPC: 1.97639 cumulative IPC: 2.42794 (Simulation time: 0 hr 3 min 2 sec) 
Heartbeat CPU  2 instructions:   30000003 cycles:   12527514 heartbeat IPC: 1.78627 cumulative IPC: 2.39473 (Simulation time: 0 hr 3 min 4 sec) 
Heartbeat CPU  1 instructions:   30000002 cycles:   12611070 heartbeat IPC: 1.82792 cumulative IPC: 2.37886 (Simulation time: 0 hr 3 min 5 sec) 
Heartbeat CPU  3 instructions:   31000000 cycles:   12929198 heartbeat IPC: 1.46542 cumulative IPC: 2.39767 (Simulation time: 0 hr 3 min 8 sec) 
Heartbeat CPU  0 instructions:   31000002 cycles:   12955117 heartbeat IPC: 1.66954 cumulative IPC: 2.39288 (Simulation time: 0 hr 3 min 8 sec) 
Heartbeat CPU  2 instructions:   31000000 cycles:   13215445 heartbeat IPC: 1.45363 cumulative IPC: 2.34574 (Simulation time: 0 hr 3 min 10 sec) 
Heartbeat CPU  1 instructions:   31000001 cycles:   13311947 heartbeat IPC: 1.42678 cumulative IPC: 2.32874 (Simulation time: 0 hr 3 min 11 sec) 
Heartbeat CPU  3 instructions:   32000000 cycles:   13577422 heartbeat IPC: 1.54268 cumulative IPC: 2.35685 (Simulation time: 0 hr 3 min 13 sec) 
Heartbeat CPU  0 instructions:   32000000 cycles:   13584638 heartbeat IPC: 1.58851 cumulative IPC: 2.35560 (Simulation time: 0 hr 3 min 13 sec) 
Heartbeat CPU  2 instructions:   32000000 cycles:   13808195 heartbeat IPC: 1.68705 cumulative IPC: 2.31746 (Simulation time: 0 hr 3 min 16 sec) 
Heartbeat CPU  1 instructions:   32000000 cycles:   13939113 heartbeat IPC: 1.59447 cumulative IPC: 2.29570 (Simulation time: 0 hr 3 min 17 sec) 
Heartbeat CPU  3 instructions:   33000000 cycles:   14037136 heartbeat IPC: 2.17527 cumulative IPC: 2.35091 (Simulation time: 0 hr 3 min 19 sec) 
Heartbeat CPU  0 instructions:   33000000 cycles:   14053764 heartbeat IPC: 2.13162 cumulative IPC: 2.34813 (Simulation time: 0 hr 3 min 19 sec) 
Heartbeat CPU  2 instructions:   33000002 cycles:   14272364 heartbeat IPC: 2.15439 cumulative IPC: 2.31216 (Simulation time: 0 hr 3 min 21 sec) 
Heartbeat CPU  1 instructions:   33000000 cycles:   14539960 heartbeat IPC: 1.66432 cumulative IPC: 2.26961 (Simulation time: 0 hr 3 min 24 sec) 
Heartbeat CPU  3 instructions:   34000002 cycles:   14569743 heartbeat IPC: 1.87756 cumulative IPC: 2.33360 (Simulation time: 0 hr 3 min 25 sec) 
Heartbeat CPU  0 instructions:   34000002 cycles:   14615339 heartbeat IPC: 1.78071 cumulative IPC: 2.32632 (Simulation time: 0 hr 3 min 25 sec) 
Heartbeat CPU  2 instructions:   34000000 cycles:   14827544 heartbeat IPC: 1.80121 cumulative IPC: 2.29303 (Simulation time: 0 hr 3 min 28 sec) 
Heartbeat CPU  0 instructions:   35000000 cycles:   15071147 heartbeat IPC: 2.19390 cumulative IPC: 2.32232 (Simulation time: 0 hr 3 min 31 sec) 
Heartbeat CPU  3 instructions:   35000002 cycles:   15100450 heartbeat IPC: 1.88428 cumulative IPC: 2.31781 (Simulation time: 0 hr 3 min 31 sec) 
Heartbeat CPU  1 instructions:   34000002 cycles:   15149316 heartbeat IPC: 1.64108 cumulative IPC: 2.24433 (Simulation time: 0 hr 3 min 32 sec) 
Heartbeat CPU  2 instructions:   35000001 cycles:   15293926 heartbeat IPC: 2.14417 cumulative IPC: 2.28849 (Simulation time: 0 hr 3 min 34 sec) 
Heartbeat CPU  0 instructions:   36000000 cycles:   15548725 heartbeat IPC: 2.09390 cumulative IPC: 2.31530 (Simulation time: 0 hr 3 min 37 sec) 
Heartbeat CPU  3 instructions:   36000000 cycles:   15590903 heartbeat IPC: 2.03893 cumulative IPC: 2.30904 (Simulation time: 0 hr 3 min 37 sec) 
Heartbeat CPU  1 instructions:   35000000 cycles:   15624708 heartbeat IPC: 2.10352 cumulative IPC: 2.24004 (Simulation time: 0 hr 3 min 38 sec) 
Heartbeat CPU  2 instructions:   36000000 cycles:   15760408 heartbeat IPC: 2.14370 cumulative IPC: 2.28420 (Simulation time: 0 hr 3 min 39 sec) 
Heartbeat CPU  0 instructions:   37000000 cycles:   16002404 heartbeat IPC: 2.20420 cumulative IPC: 2.31215 (Simulation time: 0 hr 3 min 42 sec) 
Heartbeat CPU  3 instructions:   37000003 cycles:   16054023 heartbeat IPC: 2.15927 cumulative IPC: 2.30472 (Simulation time: 0 hr 3 min 43 sec) 
Heartbeat CPU  1 instructions:   36000000 cycles:   16116129 heartbeat IPC: 2.03491 cumulative IPC: 2.23379 (Simulation time: 0 hr 3 min 44 sec) 
Heartbeat CPU  2 instructions:   37000003 cycles:   16227783 heartbeat IPC: 2.13962 cumulative IPC: 2.28004 (Simulation time: 0 hr 3 min 45 sec) 
Heartbeat CPU  0 instructions:   38000000 cycles:   16487420 heartbeat IPC: 2.06179 cumulative IPC: 2.30479 (Simulation time: 0 hr 3 min 48 sec) 
Heartbeat CPU  3 instructions:   38000003 cycles:   16502717 heartbeat IPC: 2.22869 cumulative IPC: 2.30265 (Simulation time: 0 hr 3 min 48 sec) 
Heartbeat CPU  1 instructions:   37000003 cycles:   16594394 heartbeat IPC: 2.09090 cumulative IPC: 2.22967 (Simulation time: 0 hr 3 min 50 sec) 
Heartbeat CPU  2 instructions:   38000002 cycles:   16751238 heartbeat IPC: 1.91038 cumulative IPC: 2.26849 (Simulation time: 0 hr 3 min 52 sec) 
Heartbeat CPU  3 instructions:   39000001 cycles:   16915172 heartbeat IPC: 2.42450 cumulative IPC: 2.30562 (Simulation time: 0 hr 3 min 54 sec) 
Heartbeat CPU  0 instructions:   39000002 cycles:   16970240 heartbeat IPC: 2.07117 cumulative IPC: 2.29814 (Simulation time: 0 hr 3 min 55 sec) 
Heartbeat CPU  1 instructions:   38000002 cycles:   17061275 heartbeat IPC: 2.14187 cumulative IPC: 2.22727 (Simulation time: 0 hr 3 min 56 sec) 
Heartbeat CPU  2 instructions:   39000003 cycles:   17184870 heartbeat IPC: 2.30611 cumulative IPC: 2.26944 (Simulation time: 0 hr 3 min 57 sec) 
Heartbeat CPU  3 instructions:   40000000 cycles:   17368794 heartbeat IPC: 2.20448 cumulative IPC: 2.30298 (Simulation time: 0 hr 4 min 0 sec) 
Heartbeat CPU  0 instructions:   40000000 cycles:   17446794 heartbeat IPC: 2.09839 cumulative IPC: 2.29268 (Simulation time: 0 hr 4 min 1 sec) 
Heartbeat CPU  1 instructions:   39000001 cycles:   17478170 heartbeat IPC: 2.39868 cumulative IPC: 2.23135 (Simulation time: 0 hr 4 min 1 sec) 
Heartbeat CPU  2 instructions:   40000000 cycles:   17628825 heartbeat IPC: 2.25247 cumulative IPC: 2.26901 (Simulation time: 0 hr 4 min 3 sec) 
Heartbeat CPU  3 instructions:   41000002 cycles:   17827477 heartbeat IPC: 2.18016 cumulative IPC: 2.29982 (Simulation time: 0 hr 4 min 5 sec) 
Heartbeat CPU  1 instructions:   40000000 cycles:   17923150 heartbeat IPC: 2.24729 cumulative IPC: 2.23175 (Simulation time: 0 hr 4 min 7 sec) 
Heartbeat CPU  0 instructions:   41000003 cycles:   18026588 heartbeat IPC: 1.72476 cumulative IPC: 2.27442 (Simulation time: 0 hr 4 min 8 sec) 
Heartbeat CPU  2 instructions:   41000003 cycles:   18078056 heartbeat IPC: 2.22603 cumulative IPC: 2.26794 (Simulation time: 0 hr 4 min 9 sec) 
Heartbeat CPU  3 instructions:   42000002 cycles:   18398601 heartbeat IPC: 1.75093 cumulative IPC: 2.28278 (Simulation time: 0 hr 4 min 12 sec) 
Heartbeat CPU  1 instructions:   41000003 cycles:   18411798 heartbeat IPC: 2.04647 cumulative IPC: 2.22683 (Simulation time: 0 hr 4 min 12 sec) 
Heartbeat CPU  0 instructions:   42000000 cycles:   18554661 heartbeat IPC: 1.89367 cumulative IPC: 2.26358 (Simulation time: 0 hr 4 min 14 sec) 
Heartbeat CPU  2 instructions:   42000001 cycles:   18582692 heartbeat IPC: 1.98162 cumulative IPC: 2.26017 (Simulation time: 0 hr 4 min 14 sec) 
Heartbeat CPU  3 instructions:   43000000 cycles:   18908672 heartbeat IPC: 1.96051 cumulative IPC: 2.27409 (Simulation time: 0 hr 4 min 18 sec) 
Heartbeat CPU  1 instructions:   42000003 cycles:   18927515 heartbeat IPC: 1.93905 cumulative IPC: 2.21899 (Simulation time: 0 hr 4 min 18 sec) 
Heartbeat CPU  0 instructions:   43000000 cycles:   19060030 heartbeat IPC: 1.97875 cumulative IPC: 2.25603 (Simulation time: 0 hr 4 min 20 sec) 
Heartbeat CPU  2 instructions:   43000002 cycles:   19138918 heartbeat IPC: 1.79783 cumulative IPC: 2.24673 (Simulation time: 0 hr 4 min 20 sec) 
Heartbeat CPU  3 instructions:   44000000 cycles:   19388132 heartbeat IPC: 2.08568 cumulative IPC: 2.26943 (Simulation time: 0 hr 4 min 23 sec) 
Heartbeat CPU  1 instructions:   43000003 cycles:   19492407 heartbeat IPC: 1.77025 cumulative IPC: 2.20599 (Simulation time: 0 hr 4 min 24 sec) 
Heartbeat CPU  2 instructions:   44000000 cycles:   19614546 heartbeat IPC: 2.10248 cumulative IPC: 2.24323 (Simulation time: 0 hr 4 min 26 sec) 
Heartbeat CPU  0 instructions:   44000000 cycles:   19670124 heartbeat IPC: 1.63909 cumulative IPC: 2.23689 (Simulation time: 0 hr 4 min 26 sec) 
Heartbeat CPU  1 instructions:   44000000 cycles:   20011133 heartbeat IPC: 1.92779 cumulative IPC: 2.19878 (Simulation time: 0 hr 4 min 29 sec) 
Heartbeat CPU  3 instructions:   45000000 cycles:   20106279 heartbeat IPC: 1.39247 cumulative IPC: 2.23811 (Simulation time: 0 hr 4 min 30 sec) 
Heartbeat CPU  0 instructions:   45000003 cycles:   20266182 heartbeat IPC: 1.67769 cumulative IPC: 2.22045 (Simulation time: 0 hr 4 min 32 sec) 
Heartbeat CPU  2 instructions:   45000000 cycles:   20298248 heartbeat IPC: 1.46263 cumulative IPC: 2.21694 (Simulation time: 0 hr 4 min 32 sec) 
Heartbeat CPU  3 instructions:   46000002 cycles:   20656147 heartbeat IPC: 1.81862 cumulative IPC: 2.22694 (Simulation time: 0 hr 4 min 36 sec) 
Heartbeat CPU  1 instructions:   45000002 cycles:   20674945 heartbeat IPC: 1.50645 cumulative IPC: 2.17655 (Simulation time: 0 hr 4 min 36 sec) 
Heartbeat CPU  0 instructions:   46000001 cycles:   20836826 heartbeat IPC: 1.75240 cumulative IPC: 2.20763 (Simulation time: 0 hr 4 min 38 sec) 
Heartbeat CPU  2 instructions:   46000003 cycles:   20864287 heartbeat IPC: 1.76667 cumulative IPC: 2.20472 (Simulation time: 0 hr 4 min 38 sec) 
Heartbeat CPU  1 instructions:   46000001 cycles:   21222329 heartbeat IPC: 1.82687 cumulative IPC: 2.16753 (Simulation time: 0 hr 4 min 41 sec) 
Heartbeat CPU  3 instructions:   47000002 cycles:   21302814 heartbeat IPC: 1.54639 cumulative IPC: 2.20628 (Simulation time: 0 hr 4 min 42 sec) 
Heartbeat CPU  0 instructions:   47000001 cycles:   21464959 heartbeat IPC: 1.59202 cumulative IPC: 2.18962 (Simulation time: 0 hr 4 min 44 sec) 
Heartbeat CPU  2 instructions:   47000000 cycles:   21509198 heartbeat IPC: 1.55060 cumulative IPC: 2.18511 (Simulation time: 0 hr 4 min 44 sec) 
Heartbeat CPU  1 instructions:   47000000 cycles:   21840496 heartbeat IPC: 1.61768 cumulative IPC: 2.15197 (Simulation time: 0 hr 4 min 47 sec) 
Heartbeat CPU  3 instructions:   48000000 cycles:   21840726 heartbeat IPC: 1.85904 cumulative IPC: 2.19773 (Simulation time: 0 hr 4 min 47 sec) 
Heartbeat CPU  0 instructions:   48000000 cycles:   22017706 heartbeat IPC: 1.80914 cumulative IPC: 2.18006 (Simulation time: 0 hr 4 min 49 sec) 
Heartbeat CPU  2 instructions:   48000000 cycles:   22151896 heartbeat IPC: 1.55594 cumulative IPC: 2.16686 (Simulation time: 0 hr 4 min 51 sec) 
Heartbeat CPU  3 instructions:   49000003 cycles:   22393105 heartbeat IPC: 1.81036 cumulative IPC: 2.18817 (Simulation time: 0 hr 4 min 53 sec) 
Heartbeat CPU  1 instructions:   48000000 cycles:   22400620 heartbeat IPC: 1.78532 cumulative IPC: 2.14280 (Simulation time: 0 hr 4 min 54 sec) 
Heartbeat CPU  0 instructions:   49000000 cycles:   22542184 heartbeat IPC: 1.90666 cumulative IPC: 2.17370 (Simulation time: 0 hr 4 min 55 sec) 
Heartbeat CPU  2 instructions:   49000001 cycles:   22768657 heartbeat IPC: 1.62138 cumulative IPC: 2.15208 (Simulation time: 0 hr 4 min 58 sec) 
Heartbeat CPU  3 instructions:   50000001 cycles:   22858266 heartbeat IPC: 2.14979 cumulative IPC: 2.18739 (Simulation time: 0 hr 4 min 59 sec) 
Heartbeat CPU  1 instructions:   49000001 cycles:   23013854 heartbeat IPC: 1.63070 cumulative IPC: 2.12915 (Simulation time: 0 hr 5 min 1 sec) 
Heartbeat CPU  3 instructions:   51000003 cycles:   23189504 heartbeat IPC: 3.01898 cumulative IPC: 0.04312 (Simulation time: 0 hr 5 min 3 sec) 
Heartbeat CPU  0 instructions:   50000003 cycles:   23319513 heartbeat IPC: 1.28646 cumulative IPC: 2.14413 (Simulation time: 0 hr 5 min 4 sec) 
Heartbeat CPU  2 instructions:   50000003 cycles:   23485253 heartbeat IPC: 1.39549 cumulative IPC: 2.12900 (Simulation time: 0 hr 5 min 6 sec) 
Heartbeat CPU  3 instructions:   52000000 cycles:   23525905 heartbeat IPC: 2.97263 cumulative IPC: 0.08501 (Simulation time: 0 hr 5 min 6 sec) 
Heartbeat CPU  1 instructions:   50000002 cycles:   23599364 heartbeat IPC: 1.70791 cumulative IPC: 2.11870 (Simulation time: 0 hr 5 min 7 sec) 

Warmup complete CPU  0 instructions:   50329841 cycles:   23599364 (Simulation time: 0 hr 5 min 7 sec) 
Warmup complete CPU  1 instructions:   50000002 cycles:   23599364 (Simulation time: 0 hr 5 min 7 sec) 
Warmup complete CPU  2 instructions:   50124082 cycles:   23599364 (Simulation time: 0 hr 5 min 7 sec) 
Warmup complete CPU  3 instructions:   52213523 cycles:   23599363 (Simulation time: 0 hr 5 min 7 sec) 

Heartbeat CPU  2 instructions:   51000000 cycles:   26496105 heartbeat IPC: 0.33213 cumulative IPC: 0.30238 (Simulation time: 0 hr 5 min 14 sec) 
Heartbeat CPU  1 instructions:   51000001 cycles:   26959724 heartbeat IPC: 0.29759 cumulative IPC: 0.29759 (Simulation time: 0 hr 5 min 15 sec) 
Heartbeat CPU  3 instructions:   53000000 cycles:   27100674 heartbeat IPC: 0.27974 cumulative IPC: 0.22462 (Simulation time: 0 hr 5 min 15 sec) 
Heartbeat CPU  0 instructions:   51000000 cycles:   27759837 heartbeat IPC: 0.22521 cumulative IPC: 0.16108 (Simulation time: 0 hr 5 min 17 sec) 
Heartbeat CPU  2 instructions:   52000000 cycles:   28962918 heartbeat IPC: 0.40538 cumulative IPC: 0.34975 (Simulation time: 0 hr 5 min 20 sec) 
Heartbeat CPU  3 instructions:   54000001 cycles:   30187012 heartbeat IPC: 0.32401 cumulative IPC: 0.27119 (Simulation time: 0 hr 5 min 23 sec) 
Heartbeat CPU  1 instructions:   52000000 cycles:   31687065 heartbeat IPC: 0.21154 cumulative IPC: 0.24729 (Simulation time: 0 hr 5 min 27 sec) 
Heartbeat CPU  2 instructions:   53000000 cycles:   32127266 heartbeat IPC: 0.31602 cumulative IPC: 0.33724 (Simulation time: 0 hr 5 min 28 sec) 
Heartbeat CPU  3 instructions:   55000003 cycles:   32879415 heartbeat IPC: 0.37142 cumulative IPC: 0.30027 (Simulation time: 0 hr 5 min 29 sec) 
Heartbeat CPU  0 instructions:   52000000 cycles:   33790073 heartbeat IPC: 0.16583 cumulative IPC: 0.16389 (Simulation time: 0 hr 5 min 31 sec) 
Heartbeat CPU  2 instructions:   54000000 cycles:   35076889 heartbeat IPC: 0.33903 cumulative IPC: 0.33770 (Simulation time: 0 hr 5 min 35 sec) 
Heartbeat CPU  1 instructions:   53000001 cycles:   36012468 heartbeat IPC: 0.23119 cumulative IPC: 0.24168 (Simulation time: 0 hr 5 min 37 sec) 
Heartbeat CPU  3 instructions:   56000000 cycles:   36035755 heartbeat IPC: 0.31682 cumulative IPC: 0.30447 (Simulation time: 0 hr 5 min 37 sec) 
Heartbeat CPU  0 instructions:   53000002 cycles:   37436756 heartbeat IPC: 0.27422 cumulative IPC: 0.19297 (Simulation time: 0 hr 5 min 41 sec) 
Heartbeat CPU  2 instructions:   55000000 cycles:   38121704 heartbeat IPC: 0.32843 cumulative IPC: 0.33575 (Simulation time: 0 hr 5 min 43 sec) 
Heartbeat CPU  1 instructions:   54000003 cycles:   38778324 heartbeat IPC: 0.36155 cumulative IPC: 0.26352 (Simulation time: 0 hr 5 min 45 sec) 
Heartbeat CPU  3 instructions:   57000003 cycles:   38980378 heartbeat IPC: 0.33960 cumulative IPC: 0.31119 (Simulation time: 0 hr 5 min 45 sec) 
Heartbeat CPU  0 instructions:   54000003 cycles:   40357012 heartbeat IPC: 0.34244 cumulative IPC: 0.21901 (Simulation time: 0 hr 5 min 49 sec) 
Heartbeat CPU  2 instructions:   56000000 cycles:   40980306 heartbeat IPC: 0.34982 cumulative IPC: 0.33807 (Simulation time: 0 hr 5 min 51 sec) 
Heartbeat CPU  3 instructions:   58000001 cycles:   42056061 heartbeat IPC: 0.32513 cumulative IPC: 0.31352 (Simulation time: 0 hr 5 min 54 sec) 
Heartbeat CPU  1 instructions:   55000003 cycles:   42100404 heartbeat IPC: 0.30102 cumulative IPC: 0.27026 (Simulation time: 0 hr 5 min 54 sec) 
Heartbeat CPU  2 instructions:   57000002 cycles:   43448974 heartbeat IPC: 0.40508 cumulative IPC: 0.34640 (Simulation time: 0 hr 5 min 58 sec) 
Heartbeat CPU  0 instructions:   55000003 cycles:   43468867 heartbeat IPC: 0.32135 cumulative IPC: 0.23504 (Simulation time: 0 hr 5 min 58 sec) 
Heartbeat CPU  3 instructions:   59000000 cycles:   44451197 heartbeat IPC: 0.41751 cumulative IPC: 0.32546 (Simulation time: 0 hr 6 min 1 sec) 
Heartbeat CPU  1 instructions:   56000000 cycles:   44906435 heartbeat IPC: 0.35637 cumulative IPC: 0.28160 (Simulation time: 0 hr 6 min 3 sec) 
Heartbeat CPU  2 instructions:   58000002 cycles:   45961852 heartbeat IPC: 0.39795 cumulative IPC: 0.35219 (Simulation time: 0 hr 6 min 6 sec) 
Heartbeat CPU  0 instructions:   56000000 cycles:   46249236 heartbeat IPC: 0.35966 cumulative IPC: 0.25034 (Simulation time: 0 hr 6 min 7 sec) 
Heartbeat CPU  3 instructions:   60000000 cycles:   46857483 heartbeat IPC: 0.41558 cumulative IPC: 0.33479 (Simulation time: 0 hr 6 min 9 sec) 
Heartbeat CPU  1 instructions:   57000000 cycles:   47556985 heartbeat IPC: 0.37728 cumulative IPC: 0.29218 (Simulation time: 0 hr 6 min 11 sec) 
Heartbeat CPU  2 instructions:   59000003 cycles:   48437286 heartbeat IPC: 0.40397 cumulative IPC: 0.35735 (Simulation time: 0 hr 6 min 14 sec) 
Heartbeat CPU  0 instructions:   57000003 cycles:   48847325 heartbeat IPC: 0.38490 cumulative IPC: 0.26419 (Simulation time: 0 hr 6 min 15 sec) 
Heartbeat CPU  3 instructions:   61000001 cycles:   49255494 heartbeat IPC: 0.41701 cumulative IPC: 0.34247 (Simulation time: 0 hr 6 min 16 sec) 
Heartbeat CPU  1 instructions:   58000003 cycles:   50088853 heartbeat IPC: 0.39497 cumulative IPC: 0.30201 (Simulation time: 0 hr 6 min 19 sec) 
Heartbeat CPU  2 instructions:   60000000 cycles:   51356129 heartbeat IPC: 0.34260 cumulative IPC: 0.35580 (Simulation time: 0 hr 6 min 23 sec) 
Heartbeat CPU  3 instructions:   62000002 cycles:   51687427 heartbeat IPC: 0.41120 cumulative IPC: 0.34842 (Simulation time: 0 hr 6 min 24 sec) 
Heartbeat CPU  0 instructions:   58000003 cycles:   51798819 heartbeat IPC: 0.33881 cumulative IPC: 0.27200 (Simulation time: 0 hr 6 min 24 sec) 
Heartbeat CPU  1 instructions:   59000001 cycles:   53125950 heartbeat IPC: 0.32926 cumulative IPC: 0.30481 (Simulation time: 0 hr 6 min 28 sec) 
Heartbeat CPU  2 instructions:   61000000 cycles:   54043140 heartbeat IPC: 0.37216 cumulative IPC: 0.35725 (Simulation time: 0 hr 6 min 30 sec) 
Heartbeat CPU  0 instructions:   59000002 cycles:   54385189 heartbeat IPC: 0.38664 cumulative IPC: 0.28163 (Simulation time: 0 hr 6 min 31 sec) 
Heartbeat CPU  3 instructions:   63000000 cycles:   54474569 heartbeat IPC: 0.35879 cumulative IPC: 0.34936 (Simulation time: 0 hr 6 min 32 sec) 
Heartbeat CPU  1 instructions:   60000000 cycles:   55875932 heartbeat IPC: 0.36364 cumulative IPC: 0.30982 (Simulation time: 0 hr 6 min 36 sec) 
Heartbeat CPU  0 instructions:   60000000 cycles:   57023309 heartbeat IPC: 0.37906 cumulative IPC: 0.28932 (Simulation time: 0 hr 6 min 39 sec) 
Heartbeat CPU  2 instructions:   62000003 cycles:   57273667 heartbeat IPC: 0.30955 cumulative IPC: 0.35267 (Simulation time: 0 hr 6 min 40 sec) 
Heartbeat CPU  3 instructions:   64000000 cycles:   57400925 heartbeat IPC: 0.34172 cumulative IPC: 0.34870 (Simulation time: 0 hr 6 min 40 sec) 
Heartbeat CPU  1 instructions:   61000000 cycles:   58675704 heartbeat IPC: 0.35717 cumulative IPC: 0.31360 (Simulation time: 0 hr 6 min 44 sec) 
Heartbeat CPU  0 instructions:   61000001 cycles:   59602041 heartbeat IPC: 0.38779 cumulative IPC: 0.29637 (Simulation time: 0 hr 6 min 47 sec) 
Heartbeat CPU  2 instructions:   63000002 cycles:   59919954 heartbeat IPC: 0.37789 cumulative IPC: 0.35451 (Simulation time: 0 hr 6 min 48 sec) 
Heartbeat CPU  3 instructions:   65000002 cycles:   59926665 heartbeat IPC: 0.39592 cumulative IPC: 0.35198 (Simulation time: 0 hr 6 min 48 sec) 
Heartbeat CPU  1 instructions:   62000000 cycles:   61200359 heartbeat IPC: 0.39609 cumulative IPC: 0.31914 (Simulation time: 0 hr 6 min 52 sec) 
Heartbeat CPU  0 instructions:   62000000 cycles:   62172429 heartbeat IPC: 0.38905 cumulative IPC: 0.30255 (Simulation time: 0 hr 6 min 55 sec) 
Heartbeat CPU  3 instructions:   66000001 cycles:   62540219 heartbeat IPC: 0.38262 cumulative IPC: 0.35404 (Simulation time: 0 hr 6 min 56 sec) 
Heartbeat CPU  2 instructions:   64000000 cycles:   62546966 heartbeat IPC: 0.38066 cumulative IPC: 0.35627 (Simulation time: 0 hr 6 min 56 sec) 
Heartbeat CPU  1 instructions:   63000002 cycles:   64169864 heartbeat IPC: 0.33676 cumulative IPC: 0.32043 (Simulation time: 0 hr 7 min 1 sec) 
Heartbeat CPU  3 instructions:   67000003 cycles:   65097100 heartbeat IPC: 0.39110 cumulative IPC: 0.35632 (Simulation time: 0 hr 7 min 3 sec) 
Heartbeat CPU  0 instructions:   63000001 cycles:   65158122 heartbeat IPC: 0.33493 cumulative IPC: 0.30487 (Simulation time: 0 hr 7 min 3 sec) 
Heartbeat CPU  2 instructions:   65000002 cycles:   65791158 heartbeat IPC: 0.30824 cumulative IPC: 0.35258 (Simulation time: 0 hr 7 min 5 sec) 
Heartbeat CPU  1 instructions:   64000000 cycles:   66480573 heartbeat IPC: 0.43277 cumulative IPC: 0.32648 (Simulation time: 0 hr 7 min 8 sec) 
Heartbeat CPU  0 instructions:   64000000 cycles:   67164905 heartbeat IPC: 0.49831 cumulative IPC: 0.31378 (Simulation time: 0 hr 7 min 10 sec) 
Heartbeat CPU  3 instructions:   68000000 cycles:   67665705 heartbeat IPC: 0.38932 cumulative IPC: 0.35824 (Simulation time: 0 hr 7 min 12 sec) 
Heartbeat CPU  2 instructions:   66000003 cycles:   68321472 heartbeat IPC: 0.39521 cumulative IPC: 0.35499 (Simulation time: 0 hr 7 min 14 sec) 
Heartbeat CPU  1 instructions:   65000001 cycles:   68971283 heartbeat IPC: 0.40149 cumulative IPC: 0.33060 (Simulation time: 0 hr 7 min 16 sec) 
Heartbeat CPU  0 instructions:   65000000 cycles:   70150062 heartbeat IPC: 0.33499 cumulative IPC: 0.31514 (Simulation time: 0 hr 7 min 19 sec) 
Heartbeat CPU  3 instructions:   69000001 cycles:   70593218 heartbeat IPC: 0.34159 cumulative IPC: 0.35721 (Simulation time: 0 hr 7 min 21 sec) 
Heartbeat CPU  2 instructions:   67000002 cycles:   70972247 heartbeat IPC: 0.37725 cumulative IPC: 0.35624 (Simulation time: 0 hr 7 min 22 sec) 
Heartbeat CPU  1 instructions:   66000002 cycles:   71451114 heartbeat IPC: 0.40325 cumulative IPC: 0.33437 (Simulation time: 0 hr 7 min 23 sec) 
Heartbeat CPU  0 instructions:   66000002 cycles:   72662399 heartbeat IPC: 0.39804 cumulative IPC: 0.31939 (Simulation time: 0 hr 7 min 27 sec) 
Heartbeat CPU  3 instructions:   70000002 cycles:   73012657 heartbeat IPC: 0.41332 cumulative IPC: 0.35995 (Simulation time: 0 hr 7 min 28 sec) 
Heartbeat CPU  2 instructions:   68000000 cycles:   73776243 heartbeat IPC: 0.35663 cumulative IPC: 0.35626 (Simulation time: 0 hr 7 min 31 sec) 
Heartbeat CPU  1 instructions:   67000002 cycles:   73952170 heartbeat IPC: 0.39983 cumulative IPC: 0.33762 (Simulation time: 0 hr 7 min 31 sec) 
Heartbeat CPU  0 instructions:   67000000 cycles:   75221480 heartbeat IPC: 0.39076 cumulative IPC: 0.32293 (Simulation time: 0 hr 7 min 35 sec) 
Heartbeat CPU  3 instructions:   71000000 cycles:   75398388 heartbeat IPC: 0.41916 cumulative IPC: 0.36268 (Simulation time: 0 hr 7 min 36 sec) 
Heartbeat CPU  1 instructions:   68000000 cycles:   76348686 heartbeat IPC: 0.41727 cumulative IPC: 0.34124 (Simulation time: 0 hr 7 min 39 sec) 
Heartbeat CPU  2 instructions:   69000000 cycles:   76514196 heartbeat IPC: 0.36524 cumulative IPC: 0.35672 (Simulation time: 0 hr 7 min 39 sec) 
Heartbeat CPU  3 instructions:   72000000 cycles:   77689426 heartbeat IPC: 0.43648 cumulative IPC: 0.36581 (Simulation time: 0 hr 7 min 43 sec) 
Heartbeat CPU  0 instructions:   68000000 cycles:   77771425 heartbeat IPC: 0.39217 cumulative IPC: 0.32619 (Simulation time: 0 hr 7 min 43 sec) 
Heartbeat CPU  1 instructions:   69000000 cycles:   79268174 heartbeat IPC: 0.34253 cumulative IPC: 0.34130 (Simulation time: 0 hr 7 min 47 sec) 
Heartbeat CPU  3 instructions:   73000003 cycles:   80014059 heartbeat IPC: 0.43018 cumulative IPC: 0.36846 (Simulation time: 0 hr 7 min 50 sec) 
Heartbeat CPU  2 instructions:   70000001 cycles:   80212645 heartbeat IPC: 0.27038 cumulative IPC: 0.35108 (Simulation time: 0 hr 7 min 50 sec) 
Heartbeat CPU  0 instructions:   69000002 cycles:   80780553 heartbeat IPC: 0.33232 cumulative IPC: 0.32651 (Simulation time: 0 hr 7 min 52 sec) 
Heartbeat CPU  1 instructions:   70000003 cycles:   81777396 heartbeat IPC: 0.39853 cumulative IPC: 0.34377 (Simulation time: 0 hr 7 min 55 sec) 
Heartbeat CPU  0 instructions:   70000000 cycles:   82946128 heartbeat IPC: 0.46177 cumulative IPC: 0.33144 (Simulation time: 0 hr 7 min 59 sec) 
Heartbeat CPU  3 instructions:   74000000 cycles:   83165246 heartbeat IPC: 0.31734 cumulative IPC: 0.36575 (Simulation time: 0 hr 7 min 59 sec) 
Heartbeat CPU  2 instructions:   71000002 cycles:   83543487 heartbeat IPC: 0.30022 cumulative IPC: 0.34826 (Simulation time: 0 hr 8 min 1 sec) 
Heartbeat CPU  1 instructions:   71000000 cycles:   84022121 heartbeat IPC: 0.44549 cumulative IPC: 0.34755 (Simulation time: 0 hr 8 min 2 sec) 
Heartbeat CPU  0 instructions:   71000001 cycles:   85331642 heartbeat IPC: 0.41920 cumulative IPC: 0.33484 (Simulation time: 0 hr 8 min 6 sec) 
Heartbeat CPU  3 instructions:   75000002 cycles:   85495379 heartbeat IPC: 0.42916 cumulative IPC: 0.36814 (Simulation time: 0 hr 8 min 7 sec) 
Heartbeat CPU  2 instructions:   72000000 cycles:   86201432 heartbeat IPC: 0.37623 cumulative IPC: 0.34944 (Simulation time: 0 hr 8 min 9 sec) 
Heartbeat CPU  1 instructions:   72000000 cycles:   86497522 heartbeat IPC: 0.40397 cumulative IPC: 0.34977 (Simulation time: 0 hr 8 min 10 sec) 
Heartbeat CPU  0 instructions:   72000000 cycles:   87119047 heartbeat IPC: 0.55947 cumulative IPC: 0.34116 (Simulation time: 0 hr 8 min 12 sec) 
Heartbeat CPU  3 instructions:   76000000 cycles:   88126031 heartbeat IPC: 0.38013 cumulative IPC: 0.36863 (Simulation time: 0 hr 8 min 15 sec) 
Heartbeat CPU  2 instructions:   73000002 cycles:   88831272 heartbeat IPC: 0.38025 cumulative IPC: 0.35069 (Simulation time: 0 hr 8 min 17 sec) 
Heartbeat CPU  1 instructions:   73000001 cycles:   88955851 heartbeat IPC: 0.40678 cumulative IPC: 0.35192 (Simulation time: 0 hr 8 min 17 sec) 
Heartbeat CPU  0 instructions:   73000002 cycles:   90353698 heartbeat IPC: 0.30915 cumulative IPC: 0.33961 (Simulation time: 0 hr 8 min 21 sec) 
Heartbeat CPU  3 instructions:   77000000 cycles:   91335685 heartbeat IPC: 0.31156 cumulative IPC: 0.36593 (Simulation time: 0 hr 8 min 24 sec) 
Heartbeat CPU  2 instructions:   74000003 cycles:   91649465 heartbeat IPC: 0.35484 cumulative IPC: 0.35086 (Simulation time: 0 hr 8 min 25 sec) 
Heartbeat CPU  1 instructions:   74000003 cycles:   91790839 heartbeat IPC: 0.35274 cumulative IPC: 0.35195 (Simulation time: 0 hr 8 min 25 sec) 
Heartbeat CPU  0 instructions:   74000002 cycles:   92967421 heartbeat IPC: 0.38260 cumulative IPC: 0.34123 (Simulation time: 0 hr 8 min 29 sec) 
Heartbeat CPU  2 instructions:   75000000 cycles:   94167829 heartbeat IPC: 0.39708 cumulative IPC: 0.35251 (Simulation time: 0 hr 8 min 33 sec) 
Heartbeat CPU  1 instructions:   75000002 cycles:   94194706 heartbeat IPC: 0.41600 cumulative IPC: 0.35413 (Simulation time: 0 hr 8 min 33 sec) 
Heartbeat CPU  3 instructions:   78000003 cycles:   94296634 heartbeat IPC: 0.33773 cumulative IPC: 0.36475 (Simulation time: 0 hr 8 min 33 sec) 
Heartbeat CPU  0 instructions:   75000002 cycles:   95406001 heartbeat IPC: 0.41007 cumulative IPC: 0.34356 (Simulation time: 0 hr 8 min 37 sec) 
Heartbeat CPU  2 instructions:   76000000 cycles:   96657961 heartbeat IPC: 0.40159 cumulative IPC: 0.35418 (Simulation time: 0 hr 8 min 41 sec) 
Heartbeat CPU  3 instructions:   79000000 cycles:   96780223 heartbeat IPC: 0.40264 cumulative IPC: 0.36603 (Simulation time: 0 hr 8 min 41 sec) 
Heartbeat CPU  1 instructions:   76000000 cycles:   96955061 heartbeat IPC: 0.36227 cumulative IPC: 0.35444 (Simulation time: 0 hr 8 min 42 sec) 
Heartbeat CPU  0 instructions:   76000000 cycles:   97848117 heartbeat IPC: 0.40948 cumulative IPC: 0.34573 (Simulation time: 0 hr 8 min 44 sec) 
Heartbeat CPU  2 instructions:   77000001 cycles:   99085879 heartbeat IPC: 0.41188 cumulative IPC: 0.35604 (Simulation time: 0 hr 8 min 48 sec) 
Heartbeat CPU  3 instructions:   80000000 cycles:   99290423 heartbeat IPC: 0.39837 cumulative IPC: 0.36710 (Simulation time: 0 hr 8 min 49 sec) 
Heartbeat CPU  0 instructions:   77000001 cycles:  100270410 heartbeat IPC: 0.41283 cumulative IPC: 0.34785 (Simulation time: 0 hr 8 min 52 sec) 
Heartbeat CPU  1 instructions:   77000003 cycles:  100296226 heartbeat IPC: 0.29930 cumulative IPC: 0.35204 (Simulation time: 0 hr 8 min 52 sec) 
Heartbeat CPU  2 instructions:   78000003 cycles:  101006774 heartbeat IPC: 0.52059 cumulative IPC: 0.36012 (Simulation time: 0 hr 8 min 55 sec) 
Heartbeat CPU  3 instructions:   81000002 cycles:  101688643 heartbeat IPC: 0.41698 cumulative IPC: 0.36864 (Simulation time: 0 hr 8 min 58 sec) 
Heartbeat CPU  1 instructions:   78000001 cycles:  101977520 heartbeat IPC: 0.59478 cumulative IPC: 0.35724 (Simulation time: 0 hr 8 min 58 sec) 
Heartbeat CPU  0 instructions:   78000002 cycles:  102053826 heartbeat IPC: 0.56072 cumulative IPC: 0.35269 (Simulation time: 0 hr 8 min 59 sec) 
Heartbeat CPU  0 instructions:   79000000 cycles:  103666233 heartbeat IPC: 0.62019 cumulative IPC: 0.35808 (Simulation time: 0 hr 9 min 4 sec) 
Heartbeat CPU  2 instructions:   79000001 cycles:  103807901 heartbeat IPC: 0.35700 cumulative IPC: 0.36001 (Simulation time: 0 hr 9 min 4 sec) 
Heartbeat CPU  1 instructions:   79000000 cycles:  104392960 heartbeat IPC: 0.41400 cumulative IPC: 0.35894 (Simulation time: 0 hr 9 min 6 sec) 
Heartbeat CPU  3 instructions:   82000003 cycles:  104568479 heartbeat IPC: 0.34724 cumulative IPC: 0.36787 (Simulation time: 0 hr 9 min 7 sec) 
Heartbeat CPU  0 instructions:   80000000 cycles:  105942527 heartbeat IPC: 0.43931 cumulative IPC: 0.36032 (Simulation time: 0 hr 9 min 11 sec) 
Heartbeat CPU  2 instructions:   80000000 cycles:  106190532 heartbeat IPC: 0.41970 cumulative IPC: 0.36173 (Simulation time: 0 hr 9 min 12 sec) 
Heartbeat CPU  1 instructions:   80000000 cycles:  107093411 heartbeat IPC: 0.37031 cumulative IPC: 0.35931 (Simulation time: 0 hr 9 min 15 sec) 
Heartbeat CPU  3 instructions:   83000000 cycles:  107355802 heartbeat IPC: 0.35877 cumulative IPC: 0.36757 (Simulation time: 0 hr 9 min 15 sec) 
Heartbeat CPU  2 instructions:   81000003 cycles:  108746842 heartbeat IPC: 0.39119 cumulative IPC: 0.36262 (Simulation time: 0 hr 9 min 19 sec) 
Heartbeat CPU  0 instructions:   81000001 cycles:  109705779 heartbeat IPC: 0.26573 cumulative IPC: 0.35619 (Simulation time: 0 hr 9 min 22 sec) 
Heartbeat CPU  3 instructions:   84000000 cycles:  109886619 heartbeat IPC: 0.39513 cumulative IPC: 0.36838 (Simulation time: 0 hr 9 min 23 sec) 
Heartbeat CPU  1 instructions:   81000000 cycles:  109920091 heartbeat IPC: 0.35377 cumulative IPC: 0.35913 (Simulation time: 0 hr 9 min 23 sec) 
Heartbeat CPU  2 instructions:   82000000 cycles:  111205356 heartbeat IPC: 0.40675 cumulative IPC: 0.36386 (Simulation time: 0 hr 9 min 26 sec) 
Heartbeat CPU  1 instructions:   82000002 cycles:  112462996 heartbeat IPC: 0.39325 cumulative IPC: 0.36010 (Simulation time: 0 hr 9 min 30 sec) 
Heartbeat CPU  3 instructions:   85000001 cycles:  113001739 heartbeat IPC: 0.32102 cumulative IPC: 0.36673 (Simulation time: 0 hr 9 min 32 sec) 
Heartbeat CPU  0 instructions:   82000003 cycles:  113253670 heartbeat IPC: 0.28186 cumulative IPC: 0.35325 (Simulation time: 0 hr 9 min 32 sec) 
Heartbeat CPU  2 instructions:   83000000 cycles:  114092697 heartbeat IPC: 0.34634 cumulative IPC: 0.36330 (Simulation time: 0 hr 9 min 35 sec) 
Heartbeat CPU  0 instructions:   83000001 cycles:  114925781 heartbeat IPC: 0.59805 cumulative IPC: 0.35773 (Simulation time: 0 hr 9 min 38 sec) 
Heartbeat CPU  1 instructions:   83000003 cycles:  114953213 heartbeat IPC: 0.40157 cumulative IPC: 0.36123 (Simulation time: 0 hr 9 min 38 sec) 
Heartbeat CPU  3 instructions:   86000001 cycles:  116257911 heartbeat IPC: 0.30711 cumulative IPC: 0.36463 (Simulation time: 0 hr 9 min 42 sec) 
Heartbeat CPU  2 instructions:   84000000 cycles:  116507892 heartbeat IPC: 0.41405 cumulative IPC: 0.36462 (Simulation time: 0 hr 9 min 43 sec) 
Heartbeat CPU  0 instructions:   84000000 cycles:  117518411 heartbeat IPC: 0.38571 cumulative IPC: 0.35850 (Simulation time: 0 hr 9 min 46 sec) 
Heartbeat CPU  1 instructions:   84000000 cycles:  117808474 heartbeat IPC: 0.35023 cumulative IPC: 0.36090 (Simulation time: 0 hr 9 min 46 sec) 
Heartbeat CPU  3 instructions:   87000003 cycles:  119149010 heartbeat IPC: 0.34589 cumulative IPC: 0.36407 (Simulation time: 0 hr 9 min 51 sec) 
Heartbeat CPU  0 instructions:   85000001 cycles:  119416141 heartbeat IPC: 0.52695 cumulative IPC: 0.36184 (Simulation time: 0 hr 9 min 51 sec) 
Heartbeat CPU  2 instructions:   85000003 cycles:  119477105 heartbeat IPC: 0.33679 cumulative IPC: 0.36375 (Simulation time: 0 hr 9 min 52 sec) 
Heartbeat CPU  1 instructions:   85000002 cycles:  120715293 heartbeat IPC: 0.34402 cumulative IPC: 0.36039 (Simulation time: 0 hr 9 min 55 sec) 
Heartbeat CPU  0 instructions:   86000001 cycles:  121435858 heartbeat IPC: 0.49512 cumulative IPC: 0.36459 (Simulation time: 0 hr 9 min 58 sec) 
Heartbeat CPU  3 instructions:   88000000 cycles:  121721854 heartbeat IPC: 0.38867 cumulative IPC: 0.36471 (Simulation time: 0 hr 9 min 58 sec) 
Heartbeat CPU  2 instructions:   86000003 cycles:  123175460 heartbeat IPC: 0.27039 cumulative IPC: 0.36029 (Simulation time: 0 hr 10 min 3 sec) 
Heartbeat CPU  1 instructions:   86000000 cycles:  123571928 heartbeat IPC: 0.35006 cumulative IPC: 0.36010 (Simulation time: 0 hr 10 min 4 sec) 
Heartbeat CPU  3 instructions:   89000002 cycles:  124296744 heartbeat IPC: 0.38837 cumulative IPC: 0.36532 (Simulation time: 0 hr 10 min 6 sec) 
Heartbeat CPU  0 instructions:   87000000 cycles:  124692715 heartbeat IPC: 0.30704 cumulative IPC: 0.36274 (Simulation time: 0 hr 10 min 7 sec) 
Heartbeat CPU  2 instructions:   87000002 cycles:  125691914 heartbeat IPC: 0.39738 cumulative IPC: 0.36120 (Simulation time: 0 hr 10 min 10 sec) 
Heartbeat CPU  1 instructions:   87000002 cycles:  126026901 heartbeat IPC: 0.40734 cumulative IPC: 0.36123 (Simulation time: 0 hr 10 min 12 sec) 
Heartbeat CPU  3 instructions:   90000000 cycles:  126837455 heartbeat IPC: 0.39359 cumulative IPC: 0.36601 (Simulation time: 0 hr 10 min 14 sec) 
Heartbeat CPU  0 instructions:   88000000 cycles:  127059107 heartbeat IPC: 0.42258 cumulative IPC: 0.36410 (Simulation time: 0 hr 10 min 15 sec) 
Heartbeat CPU  2 instructions:   88000000 cycles:  128022025 heartbeat IPC: 0.42916 cumulative IPC: 0.36272 (Simulation time: 0 hr 10 min 18 sec) 
Heartbeat CPU  1 instructions:   88000000 cycles:  128464908 heartbeat IPC: 0.41017 cumulative IPC: 0.36237 (Simulation time: 0 hr 10 min 19 sec) 
Heartbeat CPU  0 instructions:   89000003 cycles:  128793022 heartbeat IPC: 0.57673 cumulative IPC: 0.36761 (Simulation time: 0 hr 10 min 20 sec) 
Heartbeat CPU  3 instructions:   91000000 cycles:  130059230 heartbeat IPC: 0.31039 cumulative IPC: 0.36433 (Simulation time: 0 hr 10 min 24 sec) 
Heartbeat CPU  1 instructions:   89000001 cycles:  130973269 heartbeat IPC: 0.39867 cumulative IPC: 0.36322 (Simulation time: 0 hr 10 min 27 sec) 
Heartbeat CPU  2 instructions:   89000003 cycles:  131092769 heartbeat IPC: 0.32565 cumulative IPC: 0.36166 (Simulation time: 0 hr 10 min 27 sec) 
Heartbeat CPU  0 instructions:   90000003 cycles:  131301628 heartbeat IPC: 0.39863 cumulative IPC: 0.36833 (Simulation time: 0 hr 10 min 28 sec) 
Heartbeat CPU  1 instructions:   90000002 cycles:  133446079 heartbeat IPC: 0.40440 cumulative IPC: 0.36414 (Simulation time: 0 hr 10 min 34 sec) 
Heartbeat CPU  2 instructions:   90000000 cycles:  133625855 heartbeat IPC: 0.39477 cumulative IPC: 0.36242 (Simulation time: 0 hr 10 min 35 sec) 
Heartbeat CPU  0 instructions:   91000001 cycles:  133784403 heartbeat IPC: 0.40277 cumulative IPC: 0.36911 (Simulation time: 0 hr 10 min 35 sec) 
Heartbeat CPU  3 instructions:   92000000 cycles:  134468420 heartbeat IPC: 0.22680 cumulative IPC: 0.35886 (Simulation time: 0 hr 10 min 38 sec) 
Heartbeat CPU  0 instructions:   92000000 cycles:  135563406 heartbeat IPC: 0.56211 cumulative IPC: 0.37217 (Simulation time: 0 hr 10 min 41 sec) 
Heartbeat CPU  1 instructions:   91000001 cycles:  135934760 heartbeat IPC: 0.40182 cumulative IPC: 0.36498 (Simulation time: 0 hr 10 min 42 sec) 
Heartbeat CPU  2 instructions:   91000002 cycles:  136166171 heartbeat IPC: 0.39365 cumulative IPC: 0.36313 (Simulation time: 0 hr 10 min 43 sec) 
Heartbeat CPU  3 instructions:   93000003 cycles:  137015832 heartbeat IPC: 0.39256 cumulative IPC: 0.35962 (Simulation time: 0 hr 10 min 46 sec) 
Heartbeat CPU  0 instructions:   93000002 cycles:  138057946 heartbeat IPC: 0.40088 cumulative IPC: 0.37280 (Simulation time: 0 hr 10 min 49 sec) 
Heartbeat CPU  2 instructions:   92000000 cycles:  138092542 heartbeat IPC: 0.51911 cumulative IPC: 0.36575 (Simulation time: 0 hr 10 min 49 sec) 
Heartbeat CPU  1 instructions:   92000000 cycles:  138628086 heartbeat IPC: 0.37129 cumulative IPC: 0.36513 (Simulation time: 0 hr 10 min 51 sec) 
Heartbeat CPU  3 instructions:   94000001 cycles:  139755506 heartbeat IPC: 0.36501 cumulative IPC: 0.35974 (Simulation time: 0 hr 10 min 54 sec) 
Heartbeat CPU  2 instructions:   93000000 cycles:  140628893 heartbeat IPC: 0.39427 cumulative IPC: 0.36637 (Simulation time: 0 hr 10 min 57 sec) 
Heartbeat CPU  1 instructions:   93000002 cycles:  141118440 heartbeat IPC: 0.40155 cumulative IPC: 0.36590 (Simulation time: 0 hr 10 min 58 sec) 
Heartbeat CPU  0 instructions:   94000002 cycles:  141207931 heartbeat IPC: 0.31746 cumulative IPC: 0.37132 (Simulation time: 0 hr 10 min 58 sec) 
Heartbeat CPU  3 instructions:   95000000 cycles:  142717524 heartbeat IPC: 0.33761 cumulative IPC: 0.35919 (Simulation time: 0 hr 11 min 3 sec) 
Heartbeat CPU  2 instructions:   94000002 cycles:  143305954 heartbeat IPC: 0.37354 cumulative IPC: 0.36653 (Simulation time: 0 hr 11 min 4 sec) 
Heartbeat CPU  1 instructions:   94000000 cycles:  143704851 heartbeat IPC: 0.38664 cumulative IPC: 0.36634 (Simulation time: 0 hr 11 min 6 sec) 
Heartbeat CPU  0 instructions:   95000002 cycles:  143866131 heartbeat IPC: 0.37619 cumulative IPC: 0.37143 (Simulation time: 0 hr 11 min 6 sec) 
Heartbeat CPU  3 instructions:   96000000 cycles:  145345253 heartbeat IPC: 0.38056 cumulative IPC: 0.35965 (Simulation time: 0 hr 11 min 11 sec) 
Heartbeat CPU  2 instructions:   95000002 cycles:  146148238 heartbeat IPC: 0.35183 cumulative IPC: 0.36619 (Simulation time: 0 hr 11 min 13 sec) 
Heartbeat CPU  1 instructions:   95000002 cycles:  146159261 heartbeat IPC: 0.40743 cumulative IPC: 0.36717 (Simulation time: 0 hr 11 min 13 sec) 
Heartbeat CPU  0 instructions:   96000000 cycles:  146806862 heartbeat IPC: 0.34005 cumulative IPC: 0.37068 (Simulation time: 0 hr 11 min 15 sec) 
Heartbeat CPU  3 instructions:   97000001 cycles:  147872045 heartbeat IPC: 0.39576 cumulative IPC: 0.36039 (Simulation time: 0 hr 11 min 18 sec) 
Heartbeat CPU  2 instructions:   96000000 cycles:  148608861 heartbeat IPC: 0.40640 cumulative IPC: 0.36698 (Simulation time: 0 hr 11 min 20 sec) 
Heartbeat CPU  1 instructions:   96000000 cycles:  148615207 heartbeat IPC: 0.40717 cumulative IPC: 0.36795 (Simulation time: 0 hr 11 min 20 sec) 
Heartbeat CPU  0 instructions:   97000000 cycles:  149705072 heartbeat IPC: 0.34504 cumulative IPC: 0.37009 (Simulation time: 0 hr 11 min 24 sec) 
Heartbeat CPU  3 instructions:   98000002 cycles:  150391596 heartbeat IPC: 0.39690 cumulative IPC: 0.36111 (Simulation time: 0 hr 11 min 26 sec) 
Heartbeat CPU  2 instructions:   97000000 cycles:  151081523 heartbeat IPC: 0.40442 cumulative IPC: 0.36771 (Simulation time: 0 hr 11 min 28 sec) 
Heartbeat CPU  1 instructions:   97000001 cycles:  151573427 heartbeat IPC: 0.33804 cumulative IPC: 0.36726 (Simulation time: 0 hr 11 min 29 sec) 
Heartbeat CPU  0 instructions:   98000000 cycles:  152352718 heartbeat IPC: 0.37769 cumulative IPC: 0.37024 (Simulation time: 0 hr 11 min 31 sec) 
Heartbeat CPU  2 instructions:   98000003 cycles:  153581236 heartbeat IPC: 0.40005 cumulative IPC: 0.36833 (Simulation time: 0 hr 11 min 35 sec) 
Heartbeat CPU  3 instructions:   99000003 cycles:  153750422 heartbeat IPC: 0.29772 cumulative IPC: 0.35948 (Simulation time: 0 hr 11 min 36 sec) 
Heartbeat CPU  1 instructions:   98000001 cycles:  154181988 heartbeat IPC: 0.38335 cumulative IPC: 0.36758 (Simulation time: 0 hr 11 min 37 sec) 
Heartbeat CPU  0 instructions:   99000003 cycles:  154872650 heartbeat IPC: 0.39684 cumulative IPC: 0.37075 (Simulation time: 0 hr 11 min 39 sec) 
Heartbeat CPU  2 instructions:   99000002 cycles:  156076594 heartbeat IPC: 0.40074 cumulative IPC: 0.36894 (Simulation time: 0 hr 11 min 43 sec) 
*** Reached end of trace for Core: 3 Repeating trace: /data3/CASSANDRA/traces/cassandra_phase3_core3.trace.xz
Heartbeat CPU  3 instructions:  100000000 cycles:  156248698 heartbeat IPC: 0.40027 cumulative IPC: 0.36025 (Simulation time: 0 hr 11 min 44 sec) 
Heartbeat CPU  1 instructions:   99000002 cycles:  156673117 heartbeat IPC: 0.40142 cumulative IPC: 0.36822 (Simulation time: 0 hr 11 min 45 sec) 
*** Reached end of trace for Core: 0 Repeating trace: /data3/CASSANDRA/traces/cassandra_phase3_core0.trace.xz
Heartbeat CPU  0 instructions:  100000000 cycles:  157026106 heartbeat IPC: 0.46437 cumulative IPC: 0.37227 (Simulation time: 0 hr 11 min 46 sec) 
Heartbeat CPU  0 instructions:  101000002 cycles:  158631913 heartbeat IPC: 0.62274 cumulative IPC: 0.37524 (Simulation time: 0 hr 11 min 51 sec) 
*** Reached end of trace for Core: 2 Repeating trace: /data3/CASSANDRA/traces/cassandra_phase3_core2.trace.xz
Heartbeat CPU  2 instructions:  100000000 cycles:  158903878 heartbeat IPC: 0.35370 cumulative IPC: 0.36862 (Simulation time: 0 hr 11 min 52 sec) 
*** Reached end of trace for Core: 1 Repeating trace: /data3/CASSANDRA/traces/cassandra_phase3_core1.trace.xz
Heartbeat CPU  1 instructions:  100000000 cycles:  159168442 heartbeat IPC: 0.40075 cumulative IPC: 0.36882 (Simulation time: 0 hr 11 min 53 sec) 
Heartbeat CPU  3 instructions:  101000000 cycles:  159442297 heartbeat IPC: 0.31313 cumulative IPC: 0.35914 (Simulation time: 0 hr 11 min 53 sec) 
Heartbeat CPU  0 instructions:  102000001 cycles:  161135471 heartbeat IPC: 0.39943 cumulative IPC: 0.37568 (Simulation time: 0 hr 11 min 58 sec) 
Heartbeat CPU  2 instructions:  101000002 cycles:  161685552 heartbeat IPC: 0.35950 cumulative IPC: 0.36844 (Simulation time: 0 hr 12 min 0 sec) 
Heartbeat CPU  3 instructions:  102000001 cycles:  162082161 heartbeat IPC: 0.37881 cumulative IPC: 0.35951 (Simulation time: 0 hr 12 min 1 sec) 
Heartbeat CPU  1 instructions:  101000000 cycles:  162655928 heartbeat IPC: 0.28674 cumulative IPC: 0.36676 (Simulation time: 0 hr 12 min 2 sec) 
Heartbeat CPU  0 instructions:  103000001 cycles:  164104897 heartbeat IPC: 0.33677 cumulative IPC: 0.37486 (Simulation time: 0 hr 12 min 6 sec) 
Heartbeat CPU  2 instructions:  102000003 cycles:  164208381 heartbeat IPC: 0.39638 cumulative IPC: 0.36894 (Simulation time: 0 hr 12 min 7 sec) 
Heartbeat CPU  3 instructions:  103000003 cycles:  164707721 heartbeat IPC: 0.38087 cumulative IPC: 0.35991 (Simulation time: 0 hr 12 min 8 sec) 
Heartbeat CPU  0 instructions:  104000000 cycles:  166567540 heartbeat IPC: 0.40607 cumulative IPC: 0.37540 (Simulation time: 0 hr 12 min 13 sec) 
Heartbeat CPU  2 instructions:  103000001 cycles:  166712375 heartbeat IPC: 0.39936 cumulative IPC: 0.36947 (Simulation time: 0 hr 12 min 13 sec) 
Heartbeat CPU  3 instructions:  104000000 cycles:  167323562 heartbeat IPC: 0.38229 cumulative IPC: 0.36032 (Simulation time: 0 hr 12 min 15 sec) 
Heartbeat CPU  1 instructions:  102000003 cycles:  167365566 heartbeat IPC: 0.21233 cumulative IPC: 0.36170 (Simulation time: 0 hr 12 min 15 sec) 
Heartbeat CPU  0 instructions:  105000000 cycles:  169067179 heartbeat IPC: 0.40006 cumulative IPC: 0.37582 (Simulation time: 0 hr 12 min 20 sec) 
Heartbeat CPU  2 instructions:  104000000 cycles:  169231011 heartbeat IPC: 0.39704 cumulative IPC: 0.36995 (Simulation time: 0 hr 12 min 21 sec) 
Heartbeat CPU  3 instructions:  105000000 cycles:  170126943 heartbeat IPC: 0.35671 cumulative IPC: 0.36025 (Simulation time: 0 hr 12 min 23 sec) 
Heartbeat CPU  1 instructions:  103000001 cycles:  170762937 heartbeat IPC: 0.29434 cumulative IPC: 0.36014 (Simulation time: 0 hr 12 min 25 sec) 
Heartbeat CPU  2 instructions:  105000002 cycles:  171769662 heartbeat IPC: 0.39391 cumulative IPC: 0.37036 (Simulation time: 0 hr 12 min 28 sec) 
Heartbeat CPU  0 instructions:  106000003 cycles:  172620591 heartbeat IPC: 0.28142 cumulative IPC: 0.37357 (Simulation time: 0 hr 12 min 30 sec) 
Heartbeat CPU  3 instructions:  106000002 cycles:  173056216 heartbeat IPC: 0.34138 cumulative IPC: 0.35988 (Simulation time: 0 hr 12 min 32 sec) 
Heartbeat CPU  1 instructions:  104000000 cycles:  173151233 heartbeat IPC: 0.41871 cumulative IPC: 0.36108 (Simulation time: 0 hr 12 min 32 sec) 
Heartbeat CPU  2 instructions:  106000001 cycles:  174278647 heartbeat IPC: 0.39857 cumulative IPC: 0.37083 (Simulation time: 0 hr 12 min 36 sec) 
Heartbeat CPU  0 instructions:  107000003 cycles:  175155377 heartbeat IPC: 0.39451 cumulative IPC: 0.37392 (Simulation time: 0 hr 12 min 38 sec) 
Heartbeat CPU  1 instructions:  105000003 cycles:  175544100 heartbeat IPC: 0.41791 cumulative IPC: 0.36197 (Simulation time: 0 hr 12 min 39 sec) 
Heartbeat CPU  3 instructions:  107000002 cycles:  175638558 heartbeat IPC: 0.38725 cumulative IPC: 0.36034 (Simulation time: 0 hr 12 min 40 sec) 
Heartbeat CPU  0 instructions:  108000000 cycles:  177134740 heartbeat IPC: 0.50521 cumulative IPC: 0.37561 (Simulation time: 0 hr 12 min 44 sec) 
Heartbeat CPU  2 instructions:  107000002 cycles:  177863482 heartbeat IPC: 0.27895 cumulative IPC: 0.36869 (Simulation time: 0 hr 12 min 46 sec) 
Heartbeat CPU  3 instructions:  108000000 cycles:  178242108 heartbeat IPC: 0.38409 cumulative IPC: 0.36074 (Simulation time: 0 hr 12 min 48 sec) 
Heartbeat CPU  1 instructions:  106000000 cycles:  178296302 heartbeat IPC: 0.36334 cumulative IPC: 0.36200 (Simulation time: 0 hr 12 min 48 sec) 
Heartbeat CPU  0 instructions:  109000001 cycles:  179747399 heartbeat IPC: 0.38275 cumulative IPC: 0.37573 (Simulation time: 0 hr 12 min 52 sec) 
Heartbeat CPU  2 instructions:  108000000 cycles:  180415910 heartbeat IPC: 0.39178 cumulative IPC: 0.36907 (Simulation time: 0 hr 12 min 54 sec) 
Heartbeat CPU  1 instructions:  107000001 cycles:  180761013 heartbeat IPC: 0.40573 cumulative IPC: 0.36268 (Simulation time: 0 hr 12 min 55 sec) 
Heartbeat CPU  3 instructions:  109000001 cycles:  181132166 heartbeat IPC: 0.34601 cumulative IPC: 0.36047 (Simulation time: 0 hr 12 min 56 sec) 
Heartbeat CPU  0 instructions:  110000000 cycles:  182653262 heartbeat IPC: 0.34413 cumulative IPC: 0.37516 (Simulation time: 0 hr 13 min 1 sec) 
Heartbeat CPU  2 instructions:  109000000 cycles:  182803460 heartbeat IPC: 0.41884 cumulative IPC: 0.36981 (Simulation time: 0 hr 13 min 1 sec) 
Heartbeat CPU  1 instructions:  108000000 cycles:  183258196 heartbeat IPC: 0.40045 cumulative IPC: 0.36327 (Simulation time: 0 hr 13 min 3 sec) 
Heartbeat CPU  3 instructions:  110000003 cycles:  183757241 heartbeat IPC: 0.38094 cumulative IPC: 0.36081 (Simulation time: 0 hr 13 min 4 sec) 
Heartbeat CPU  2 instructions:  110000001 cycles:  185198461 heartbeat IPC: 0.41754 cumulative IPC: 0.37052 (Simulation time: 0 hr 13 min 9 sec) 
Heartbeat CPU  1 instructions:  109000001 cycles:  185708737 heartbeat IPC: 0.40807 cumulative IPC: 0.36395 (Simulation time: 0 hr 13 min 10 sec) 
Heartbeat CPU  0 instructions:  111000001 cycles:  186085807 heartbeat IPC: 0.29133 cumulative IPC: 0.37339 (Simulation time: 0 hr 13 min 12 sec) 
Heartbeat CPU  3 instructions:  111000000 cycles:  186381588 heartbeat IPC: 0.38105 cumulative IPC: 0.36114 (Simulation time: 0 hr 13 min 13 sec) 
Heartbeat CPU  2 instructions:  111000002 cycles:  186774693 heartbeat IPC: 0.63442 cumulative IPC: 0.37307 (Simulation time: 0 hr 13 min 14 sec) 
Heartbeat CPU  1 instructions:  110000002 cycles:  188216091 heartbeat IPC: 0.39883 cumulative IPC: 0.36448 (Simulation time: 0 hr 13 min 18 sec) 
Heartbeat CPU  0 instructions:  112000000 cycles:  188529283 heartbeat IPC: 0.40925 cumulative IPC: 0.37392 (Simulation time: 0 hr 13 min 19 sec) 
Heartbeat CPU  3 instructions:  112000000 cycles:  189450593 heartbeat IPC: 0.32584 cumulative IPC: 0.36048 (Simulation time: 0 hr 13 min 22 sec) 
Heartbeat CPU  2 instructions:  112000000 cycles:  190045304 heartbeat IPC: 0.30575 cumulative IPC: 0.37175 (Simulation time: 0 hr 13 min 24 sec) 
Heartbeat CPU  0 instructions:  113000002 cycles:  190560908 heartbeat IPC: 0.49222 cumulative IPC: 0.37536 (Simulation time: 0 hr 13 min 25 sec) 
Heartbeat CPU  1 instructions:  111000003 cycles:  191308334 heartbeat IPC: 0.32339 cumulative IPC: 0.36373 (Simulation time: 0 hr 13 min 27 sec) 
Heartbeat CPU  3 instructions:  113000000 cycles:  192604949 heartbeat IPC: 0.31702 cumulative IPC: 0.35967 (Simulation time: 0 hr 13 min 31 sec) 
Heartbeat CPU  2 instructions:  113000001 cycles:  192811403 heartbeat IPC: 0.36152 cumulative IPC: 0.37158 (Simulation time: 0 hr 13 min 31 sec) 
Heartbeat CPU  0 instructions:  114000000 cycles:  193574863 heartbeat IPC: 0.33179 cumulative IPC: 0.37458 (Simulation time: 0 hr 13 min 34 sec) 
Heartbeat CPU  1 instructions:  112000000 cycles:  194003475 heartbeat IPC: 0.37104 cumulative IPC: 0.36384 (Simulation time: 0 hr 13 min 35 sec) 
Heartbeat CPU  2 instructions:  114000001 cycles:  195352104 heartbeat IPC: 0.39359 cumulative IPC: 0.37191 (Simulation time: 0 hr 13 min 39 sec) 
Heartbeat CPU  3 instructions:  114000003 cycles:  195688656 heartbeat IPC: 0.32429 cumulative IPC: 0.35904 (Simulation time: 0 hr 13 min 40 sec) 
Heartbeat CPU  0 instructions:  115000002 cycles:  197055839 heartbeat IPC: 0.28728 cumulative IPC: 0.37283 (Simulation time: 0 hr 13 min 43 sec) 
Heartbeat CPU  2 instructions:  115000001 cycles:  197768479 heartbeat IPC: 0.41384 cumulative IPC: 0.37249 (Simulation time: 0 hr 13 min 45 sec) 
Heartbeat CPU  1 instructions:  113000003 cycles:  198343458 heartbeat IPC: 0.23042 cumulative IPC: 0.36053 (Simulation time: 0 hr 13 min 47 sec) 
Heartbeat CPU  3 instructions:  115000001 cycles:  198410764 heartbeat IPC: 0.36736 cumulative IPC: 0.35917 (Simulation time: 0 hr 13 min 47 sec) 
Heartbeat CPU  0 instructions:  116000000 cycles:  199777014 heartbeat IPC: 0.36749 cumulative IPC: 0.37275 (Simulation time: 0 hr 13 min 52 sec) 
Heartbeat CPU  1 instructions:  114000002 cycles:  200081164 heartbeat IPC: 0.57547 cumulative IPC: 0.36264 (Simulation time: 0 hr 13 min 53 sec) 
Heartbeat CPU  2 instructions:  116000000 cycles:  200215835 heartbeat IPC: 0.40860 cumulative IPC: 0.37299 (Simulation time: 0 hr 13 min 53 sec) 
Heartbeat CPU  3 instructions:  116000000 cycles:  201455029 heartbeat IPC: 0.32849 cumulative IPC: 0.35864 (Simulation time: 0 hr 13 min 57 sec) 
Heartbeat CPU  1 instructions:  115000003 cycles:  202830583 heartbeat IPC: 0.36371 cumulative IPC: 0.36266 (Simulation time: 0 hr 14 min 0 sec) 
Heartbeat CPU  0 instructions:  117000001 cycles:  202931783 heartbeat IPC: 0.31698 cumulative IPC: 0.37177 (Simulation time: 0 hr 14 min 1 sec) 
Heartbeat CPU  2 instructions:  117000002 cycles:  202971881 heartbeat IPC: 0.36284 cumulative IPC: 0.37283 (Simulation time: 0 hr 14 min 1 sec) 
Heartbeat CPU  3 instructions:  117000002 cycles:  204272926 heartbeat IPC: 0.35488 cumulative IPC: 0.35858 (Simulation time: 0 hr 14 min 5 sec) 
Heartbeat CPU  2 instructions:  118000000 cycles:  205777470 heartbeat IPC: 0.35643 cumulative IPC: 0.37258 (Simulation time: 0 hr 14 min 9 sec) 
Heartbeat CPU  0 instructions:  118000000 cycles:  205778866 heartbeat IPC: 0.35124 cumulative IPC: 0.37145 (Simulation time: 0 hr 14 min 9 sec) 
Heartbeat CPU  1 instructions:  116000000 cycles:  205812274 heartbeat IPC: 0.33538 cumulative IPC: 0.36221 (Simulation time: 0 hr 14 min 9 sec) 
Heartbeat CPU  3 instructions:  118000002 cycles:  206763556 heartbeat IPC: 0.40150 cumulative IPC: 0.35917 (Simulation time: 0 hr 14 min 12 sec) 
Heartbeat CPU  1 instructions:  117000000 cycles:  208263096 heartbeat IPC: 0.40803 cumulative IPC: 0.36282 (Simulation time: 0 hr 14 min 17 sec) 
Heartbeat CPU  2 instructions:  119000003 cycles:  208315518 heartbeat IPC: 0.39400 cumulative IPC: 0.37287 (Simulation time: 0 hr 14 min 17 sec) 
Heartbeat CPU  0 instructions:  119000000 cycles:  208345421 heartbeat IPC: 0.38963 cumulative IPC: 0.37170 (Simulation time: 0 hr 14 min 17 sec) 
Heartbeat CPU  3 instructions:  119000002 cycles:  209241667 heartbeat IPC: 0.40353 cumulative IPC: 0.35976 (Simulation time: 0 hr 14 min 20 sec) 
Heartbeat CPU  2 instructions:  120000000 cycles:  210813385 heartbeat IPC: 0.40034 cumulative IPC: 0.37324 (Simulation time: 0 hr 14 min 24 sec) 
Heartbeat CPU  1 instructions:  118000000 cycles:  211307935 heartbeat IPC: 0.32842 cumulative IPC: 0.36226 (Simulation time: 0 hr 14 min 26 sec) 
Heartbeat CPU  0 instructions:  120000000 cycles:  211366057 heartbeat IPC: 0.33106 cumulative IPC: 0.37105 (Simulation time: 0 hr 14 min 26 sec) 
Heartbeat CPU  3 instructions:  120000000 cycles:  211704966 heartbeat IPC: 0.40596 cumulative IPC: 0.36036 (Simulation time: 0 hr 14 min 27 sec) 
Heartbeat CPU  0 instructions:  121000001 cycles:  213828785 heartbeat IPC: 0.40605 cumulative IPC: 0.37150 (Simulation time: 0 hr 14 min 33 sec) 
Heartbeat CPU  1 instructions:  119000002 cycles:  213985807 heartbeat IPC: 0.37343 cumulative IPC: 0.36242 (Simulation time: 0 hr 14 min 33 sec) 
Heartbeat CPU  3 instructions:  121000001 cycles:  214912448 heartbeat IPC: 0.31177 cumulative IPC: 0.35955 (Simulation time: 0 hr 14 min 36 sec) 
Heartbeat CPU  2 instructions:  121000000 cycles:  215066975 heartbeat IPC: 0.23510 cumulative IPC: 0.37017 (Simulation time: 0 hr 14 min 37 sec) 
Heartbeat CPU  0 instructions:  122000003 cycles:  215410378 heartbeat IPC: 0.63228 cumulative IPC: 0.37365 (Simulation time: 0 hr 14 min 38 sec) 
Heartbeat CPU  1 instructions:  120000000 cycles:  216747127 heartbeat IPC: 0.36214 cumulative IPC: 0.36242 (Simulation time: 0 hr 14 min 41 sec) 
Heartbeat CPU  0 instructions:  123000001 cycles:  217896916 heartbeat IPC: 0.40216 cumulative IPC: 0.37401 (Simulation time: 0 hr 14 min 45 sec) 
Heartbeat CPU  2 instructions:  122000003 cycles:  218501050 heartbeat IPC: 0.29120 cumulative IPC: 0.36878 (Simulation time: 0 hr 14 min 46 sec) 
Heartbeat CPU  3 instructions:  122000001 cycles:  218510851 heartbeat IPC: 0.27790 cumulative IPC: 0.35804 (Simulation time: 0 hr 14 min 46 sec) 
Heartbeat CPU  1 instructions:  121000001 cycles:  219866229 heartbeat IPC: 0.32061 cumulative IPC: 0.36175 (Simulation time: 0 hr 14 min 50 sec) 
Heartbeat CPU  0 instructions:  124000000 cycles:  220998100 heartbeat IPC: 0.32246 cumulative IPC: 0.37320 (Simulation time: 0 hr 14 min 54 sec) 
Heartbeat CPU  3 instructions:  123000003 cycles:  221059784 heartbeat IPC: 0.39232 cumulative IPC: 0.35848 (Simulation time: 0 hr 14 min 54 sec) 
Heartbeat CPU  2 instructions:  123000000 cycles:  221553012 heartbeat IPC: 0.32766 cumulative IPC: 0.36815 (Simulation time: 0 hr 14 min 55 sec) 
Heartbeat CPU  1 instructions:  122000002 cycles:  222523591 heartbeat IPC: 0.37631 cumulative IPC: 0.36195 (Simulation time: 0 hr 14 min 57 sec) 
Heartbeat CPU  3 instructions:  124000000 cycles:  223660367 heartbeat IPC: 0.38453 cumulative IPC: 0.35882 (Simulation time: 0 hr 15 min 0 sec) 
Heartbeat CPU  0 instructions:  125000002 cycles:  225044008 heartbeat IPC: 0.24716 cumulative IPC: 0.37067 (Simulation time: 0 hr 15 min 3 sec) 
Heartbeat CPU  1 instructions:  123000003 cycles:  225277285 heartbeat IPC: 0.36315 cumulative IPC: 0.36196 (Simulation time: 0 hr 15 min 4 sec) 
Heartbeat CPU  3 instructions:  125000002 cycles:  226477414 heartbeat IPC: 0.35498 cumulative IPC: 0.35877 (Simulation time: 0 hr 15 min 7 sec) 
Heartbeat CPU  2 instructions:  124000000 cycles:  227604355 heartbeat IPC: 0.16525 cumulative IPC: 0.36213 (Simulation time: 0 hr 15 min 10 sec) 
Heartbeat CPU  0 instructions:  126000003 cycles:  227707429 heartbeat IPC: 0.37546 cumulative IPC: 0.37074 (Simulation time: 0 hr 15 min 10 sec) 
Heartbeat CPU  1 instructions:  124000000 cycles:  228628550 heartbeat IPC: 0.29839 cumulative IPC: 0.36092 (Simulation time: 0 hr 15 min 13 sec) 
Heartbeat CPU  0 instructions:  127000002 cycles:  229830685 heartbeat IPC: 0.47097 cumulative IPC: 0.37177 (Simulation time: 0 hr 15 min 17 sec) 
Heartbeat CPU  2 instructions:  125000003 cycles:  230606716 heartbeat IPC: 0.33307 cumulative IPC: 0.36171 (Simulation time: 0 hr 15 min 19 sec) 
Heartbeat CPU  3 instructions:  126000001 cycles:  231028224 heartbeat IPC: 0.21974 cumulative IPC: 0.35572 (Simulation time: 0 hr 15 min 20 sec) 
Heartbeat CPU  1 instructions:  125000002 cycles:  231699208 heartbeat IPC: 0.32566 cumulative IPC: 0.36040 (Simulation time: 0 hr 15 min 22 sec) 
Heartbeat CPU  3 instructions:  127000001 cycles:  233236553 heartbeat IPC: 0.45283 cumulative IPC: 0.35674 (Simulation time: 0 hr 15 min 26 sec) 
Heartbeat CPU  0 instructions:  128000000 cycles:  233284285 heartbeat IPC: 0.28955 cumulative IPC: 0.37041 (Simulation time: 0 hr 15 min 26 sec) 
Heartbeat CPU  2 instructions:  126000001 cycles:  234474013 heartbeat IPC: 0.25858 cumulative IPC: 0.35982 (Simulation time: 0 hr 15 min 29 sec) 
Heartbeat CPU  1 instructions:  126000000 cycles:  235716754 heartbeat IPC: 0.24891 cumulative IPC: 0.35829 (Simulation time: 0 hr 15 min 32 sec) 
Heartbeat CPU  3 instructions:  128000000 cycles:  236330010 heartbeat IPC: 0.32326 cumulative IPC: 0.35626 (Simulation time: 0 hr 15 min 33 sec) 
Heartbeat CPU  1 instructions:  127000002 cycles:  237923335 heartbeat IPC: 0.45319 cumulative IPC: 0.35927 (Simulation time: 0 hr 15 min 37 sec) 
Heartbeat CPU  0 instructions:  129000000 cycles:  238198815 heartbeat IPC: 0.20348 cumulative IPC: 0.36659 (Simulation time: 0 hr 15 min 39 sec) 
Heartbeat CPU  2 instructions:  127000001 cycles:  239567926 heartbeat IPC: 0.19631 cumulative IPC: 0.35596 (Simulation time: 0 hr 15 min 43 sec) 
Heartbeat CPU  1 instructions:  128000000 cycles:  241273253 heartbeat IPC: 0.29851 cumulative IPC: 0.35833 (Simulation time: 0 hr 15 min 47 sec) 
Heartbeat CPU  3 instructions:  129000003 cycles:  241669105 heartbeat IPC: 0.18730 cumulative IPC: 0.35212 (Simulation time: 0 hr 15 min 48 sec) 
Heartbeat CPU  0 instructions:  130000000 cycles:  242810326 heartbeat IPC: 0.21685 cumulative IPC: 0.36344 (Simulation time: 0 hr 15 min 50 sec) 
Heartbeat CPU  2 instructions:  128000000 cycles:  244082425 heartbeat IPC: 0.22151 cumulative IPC: 0.35321 (Simulation time: 0 hr 15 min 52 sec) 
Heartbeat CPU  0 instructions:  131000003 cycles:  246070790 heartbeat IPC: 0.30671 cumulative IPC: 0.36261 (Simulation time: 0 hr 15 min 57 sec) 
Heartbeat CPU  3 instructions:  130000001 cycles:  246244475 heartbeat IPC: 0.21856 cumulative IPC: 0.34937 (Simulation time: 0 hr 15 min 58 sec) 
Heartbeat CPU  1 instructions:  129000000 cycles:  246478904 heartbeat IPC: 0.19210 cumulative IPC: 0.35445 (Simulation time: 0 hr 15 min 58 sec) 
Heartbeat CPU  2 instructions:  129000002 cycles:  249354935 heartbeat IPC: 0.18966 cumulative IPC: 0.34939 (Simulation time: 0 hr 16 min 5 sec) 
Heartbeat CPU  3 instructions:  131000000 cycles:  249570795 heartbeat IPC: 0.30063 cumulative IPC: 0.34866 (Simulation time: 0 hr 16 min 5 sec) 
Heartbeat CPU  0 instructions:  132000000 cycles:  249909755 heartbeat IPC: 0.26049 cumulative IPC: 0.36088 (Simulation time: 0 hr 16 min 6 sec) 
Heartbeat CPU  1 instructions:  130000002 cycles:  250905804 heartbeat IPC: 0.22589 cumulative IPC: 0.35195 (Simulation time: 0 hr 16 min 8 sec) 
[...]
Core_0_LLC_acc_level_2 47933
Core_0_LLC_acc_level_3 22509
Core_0_LLC_acc_level_4 8754
Core_0_LLC_acc_level_5 17246
Core_0_LLC_acc_level_6 5084
Core_0_LLC_acc_level_7 3255
Core_0_LLC_acc_level_8 1766
Core_0_LLC_acc_level_9 8925

Core_0_major_page_fault 0
Core_0_minor_page_fault 51913

Core_1_instructions 150000002
Core_1_cycles 463492523
Core_1_IPC 0.32363

Core_1_branch_prediction_accuracy 97.38630
Core_1_branch_MPKI 3.60566
Core_1_average_ROB_occupancy_at_mispredict 93.85773

Core_1_L1D_total_access 16270929
Core_1_L1D_total_hit 14924578
Core_1_L1D_total_miss 1346351
Core_1_L1D_loads 10736451
Core_1_L1D_load_hit 9571213
Core_1_L1D_load_miss 1165238
Core_1_L1D_RFOs 5534478
Core_1_L1D_RFO_hit 5353365
Core_1_L1D_RFO_miss 181113
Core_1_L1D_prefetches 0
Core_1_L1D_prefetch_hit 0
Core_1_L1D_prefetch_miss 0
Core_1_L1D_writebacks 0
Core_1_L1D_writeback_hit 0
Core_1_L1D_writeback_miss 0
Core_1_L1D_prefetch_requested 0
Core_1_L1D_prefetch_dropped 0
Core_1_L1D_prefetch_issued 0
Core_1_L1D_prefetch_filled 0
Core_1_L1D_prefetch_useful 0
Core_1_L1D_prefetch_useless 0
Core_1_L1D_prefetch_late 0
Core_1_L1D_average_miss_latency 150.56615

Core_1_L1D_rq_access 19153864
Core_1_L1D_rq_forward 0
Core_1_L1D_rq_merged 7965011
Core_1_L1D_rq_to_cache 11188503
Core_1_L1D_rq_full 0

Core_1_L1D_wq_access 6280293
Core_1_L1D_wq_forward 350
Core_1_L1D_wq_merged 133722
Core_1_L1D_wq_to_cache 6146571
Core_1_L1D_wq_full 1791

Core_1_L1D_pq_access 0
Core_1_L1D_pq_forward 0
Core_1_L1D_pq_merged 0
Core_1_L1D_pq_to_cache 0
Core_1_L1D_pq_full 0

Core_1_L1D_acc_epochs 202710
Core_1_L1D_acc_level_0 202710
Core_1_L1D_acc_level_1 0
Core_1_L1D_acc_level_2 0
Core_1_L1D_acc_level_3 0
Core_1_L1D_acc_level_4 0
Core_1_L1D_acc_level_5 0
Core_1_L1D_acc_level_6 0
Core_1_L1D_acc_level_7 0
Core_1_L1D_acc_level_8 0
Core_1_L1D_acc_level_9 0

Core_1_L1I_total_access 31324503
Core_1_L1I_total_hit 30881838
Core_1_L1I_total_miss 442665
Core_1_L1I_loads 31324503
Core_1_L1I_load_hit 30881838
Core_1_L1I_load_miss 442665
Core_1_L1I_RFOs 0
Core_1_L1I_RFO_hit 0
Core_1_L1I_RFO_miss 0
Core_1_L1I_prefetches 0
Core_1_L1I_prefetch_hit 0
Core_1_L1I_prefetch_miss 0
Core_1_L1I_writebacks 0
Core_1_L1I_writeback_hit 0
Core_1_L1I_writeback_miss 0
Core_1_L1I_prefetch_requested 0
Core_1_L1I_prefetch_dropped 0
Core_1_L1I_prefetch_issued 0
Core_1_L1I_prefetch_filled 0
Core_1_L1I_prefetch_useful 0
Core_1_L1I_prefetch_useless 0
Core_1_L1I_prefetch_late 0
Core_1_L1I_average_miss_latency 81.31044

Core_1_L1I_rq_access 151360279
Core_1_L1I_rq_forward 0
Core_1_L1I_rq_merged 119538224
Core_1_L1I_rq_to_cache 31822055
Core_1_L1I_rq_full 0

Core_1_L1I_wq_access 0
Core_1_L1I_wq_forward 0
Core_1_L1I_wq_merged 0
Core_1_L1I_wq_to_cache 0
Core_1_L1I_wq_full 0

Core_1_L1I_pq_access 0
Core_1_L1I_pq_forward 0
Core_1_L1I_pq_merged 0
Core_1_L1I_pq_to_cache 0
Core_1_L1I_pq_full 0

Core_1_L1I_acc_epochs 202710
Core_1_L1I_acc_level_0 202710
Core_1_L1I_acc_level_1 0
Core_1_L1I_acc_level_2 0
Core_1_L1I_acc_level_3 0
Core_1_L1I_acc_level_4 0
Core_1_L1I_acc_level_5 0
Core_1_L1I_acc_level_6 0
Core_1_L1I_acc_level_7 0
Core_1_L1I_acc_level_8 0
Core_1_L1I_acc_level_9 0

Core_1_L2C_total_access 3016193
Core_1_L2C_total_hit 1476444
Core_1_L2C_total_miss 1539749
Core_1_L2C_loads 1607895
Core_1_L2C_load_hit 782866
Core_1_L2C_load_miss 825029
Core_1_L2C_RFOs 181080
Core_1_L2C_RFO_hit 33920
Core_1_L2C_RFO_miss 147160
Core_1_L2C_prefetches 799681
Core_1_L2C_prefetch_hit 235049
Core_1_L2C_prefetch_miss 564632
Core_1_L2C_writebacks 427537
Core_1_L2C_writeback_hit 424609
Core_1_L2C_writeback_miss 2928
Core_1_L2C_prefetch_requested 2121076
Core_1_L2C_prefetch_dropped 0
Core_1_L2C_prefetch_issued 2121076
Core_1_L2C_prefetch_filled 739435
Core_1_L2C_prefetch_useful 555641
Core_1_L2C_prefetch_useless 183601
Core_1_L2C_prefetch_late 20572
Core_1_L2C_average_miss_latency 186.33087

Core_1_L2C_rq_access 1829357
Core_1_L2C_rq_forward 0
Core_1_L2C_rq_merged 0
Core_1_L2C_rq_to_cache 1829314
Core_1_L2C_rq_full 0

Core_1_L2C_wq_access 433962
Core_1_L2C_wq_forward 43
Core_1_L2C_wq_merged 0
Core_1_L2C_wq_to_cache 433962
Core_1_L2C_wq_full 0

Core_1_L2C_pq_access 2121076
Core_1_L2C_pq_forward 0
Core_1_L2C_pq_merged 0
Core_1_L2C_pq_to_cache 2121076
Core_1_L2C_pq_full 0

Core_1_L2C_acc_epochs 202710
Core_1_L2C_acc_level_0 55546
Core_1_L2C_acc_level_1 12114
Core_1_L2C_acc_level_2 11296
Core_1_L2C_acc_level_3 10442
Core_1_L2C_acc_level_4 8687
Core_1_L2C_acc_level_5 11582
Core_1_L2C_acc_level_6 9236
Core_1_L2C_acc_level_7 8627
Core_1_L2C_acc_level_8 8130
Core_1_L2C_acc_level_9 67050

Core_1_LLC_total_access 2624080
Core_1_LLC_total_hit 1198050
Core_1_LLC_total_miss 1426030
Core_1_LLC_loads 805141
Core_1_LLC_load_hit 335807
Core_1_LLC_load_miss 469334
Core_1_LLC_RFOs 147145
Core_1_LLC_RFO_hit 50579
Core_1_LLC_RFO_miss 96566
Core_1_LLC_prefetches 1301255
Core_1_LLC_prefetch_hit 545668
Core_1_LLC_prefetch_miss 755587
Core_1_LLC_writebacks 370539
Core_1_LLC_writeback_hit 265996
Core_1_LLC_writeback_miss 104543
Core_1_LLC_prefetch_requested 0
Core_1_LLC_prefetch_dropped 0
Core_1_LLC_prefetch_issued 0
Core_1_LLC_prefetch_filled 4688778
Core_1_LLC_prefetch_useful 469722
Core_1_LLC_prefetch_useless 4163496
Core_1_LLC_prefetch_late 9734
Core_1_LLC_average_miss_latency 873.11287

Core_1_LLC_rq_access 4058945
Core_1_LLC_rq_forward 0
Core_1_LLC_rq_merged 0
Core_1_LLC_rq_to_cache 4058930
Core_1_LLC_rq_full 0

Core_1_LLC_wq_access 1543422
Core_1_LLC_wq_forward 20
Core_1_LLC_wq_merged 0
Core_1_LLC_wq_to_cache 1543422
Core_1_LLC_wq_full 0

Core_1_LLC_pq_access 7588053
Core_1_LLC_pq_forward 0
Core_1_LLC_pq_merged 0
Core_1_LLC_pq_to_cache 7588048
Core_1_LLC_pq_full 0

Core_1_LLC_acc_epochs 481113
Core_1_LLC_acc_level_0 277951
Core_1_LLC_acc_level_1 87690
Core_1_LLC_acc_level_2 47933
Core_1_LLC_acc_level_3 22509
Core_1_LLC_acc_level_4 8754
Core_1_LLC_acc_level_5 17246
Core_1_LLC_acc_level_6 5084
Core_1_LLC_acc_level_7 3255
Core_1_LLC_acc_level_8 1766
Core_1_LLC_acc_level_9 8925

Core_1_major_page_fault 0
Core_1_minor_page_fault 49454

Core_2_instructions 150000000
Core_2_cycles 469059615
Core_2_IPC 0.31979

Core_2_branch_prediction_accuracy 97.55439
Core_2_branch_MPKI 3.35290
Core_2_average_ROB_occupancy_at_mispredict 99.38264

Core_2_L1D_total_access 15936659
Core_2_L1D_total_hit 14473714
Core_2_L1D_total_miss 1462945
Core_2_L1D_loads 10725171
Core_2_L1D_load_hit 9438575
Core_2_L1D_load_miss 1286596
Core_2_L1D_RFOs 5211488
Core_2_L1D_RFO_hit 5035139
Core_2_L1D_RFO_miss 176349
Core_2_L1D_prefetches 0
Core_2_L1D_prefetch_hit 0
Core_2_L1D_prefetch_miss 0
Core_2_L1D_writebacks 0
Core_2_L1D_writeback_hit 0
Core_2_L1D_writeback_miss 0
Core_2_L1D_prefetch_requested 0
Core_2_L1D_prefetch_dropped 0
Core_2_L1D_prefetch_issued 0
Core_2_L1D_prefetch_filled 0
Core_2_L1D_prefetch_useful 0
Core_2_L1D_prefetch_useless 0
Core_2_L1D_prefetch_late 0
Core_2_L1D_average_miss_latency 151.63195

Core_2_L1D_rq_access 18861598
Core_2_L1D_rq_forward 0
Core_2_L1D_rq_merged 7730926
Core_2_L1D_rq_to_cache 11130411
Core_2_L1D_rq_full 0

Core_2_L1D_wq_access 5887171
Core_2_L1D_wq_forward 261
Core_2_L1D_wq_merged 137155
Core_2_L1D_wq_to_cache 5750016
Core_2_L1D_wq_full 0

Core_2_L1D_pq_access 0
Core_2_L1D_pq_forward 0
Core_2_L1D_pq_merged 0
Core_2_L1D_pq_to_cache 0
Core_2_L1D_pq_full 0

Core_2_L1D_acc_epochs 205065
Core_2_L1D_acc_level_0 205065
Core_2_L1D_acc_level_1 0
Core_2_L1D_acc_level_2 0
Core_2_L1D_acc_level_3 0
Core_2_L1D_acc_level_4 0
Core_2_L1D_acc_level_5 0
Core_2_L1D_acc_level_6 0
Core_2_L1D_acc_level_7 0
Core_2_L1D_acc_level_8 0
Core_2_L1D_acc_level_9 0

Core_2_L1I_total_access 31259741
Core_2_L1I_total_hit 30876422
Core_2_L1I_total_miss 383319
Core_2_L1I_loads 31259741
Core_2_L1I_load_hit 30876422
Core_2_L1I_load_miss 383319
Core_2_L1I_RFOs 0
Core_2_L1I_RFO_hit 0
Core_2_L1I_RFO_miss 0
Core_2_L1I_prefetches 0
Core_2_L1I_prefetch_hit 0
Core_2_L1I_prefetch_miss 0
Core_2_L1I_writebacks 0
Core_2_L1I_writeback_hit 0
Core_2_L1I_writeback_miss 0
Core_2_L1I_prefetch_requested 0
Core_2_L1I_prefetch_dropped 0
Core_2_L1I_prefetch_issued 0
Core_2_L1I_prefetch_filled 0
Core_2_L1I_prefetch_useful 0
Core_2_L1I_prefetch_useless 0
Core_2_L1I_prefetch_late 0
Core_2_L1I_average_miss_latency 82.21892

Core_2_L1I_rq_access 150000241
Core_2_L1I_rq_forward 0
Core_2_L1I_rq_merged 118529124
Core_2_L1I_rq_to_cache 31471117
Core_2_L1I_rq_full 0

Core_2_L1I_wq_access 0
Core_2_L1I_wq_forward 0
Core_2_L1I_wq_merged 0
Core_2_L1I_wq_to_cache 0
Core_2_L1I_wq_full 0

Core_2_L1I_pq_access 0
Core_2_L1I_pq_forward 0
Core_2_L1I_pq_merged 0
Core_2_L1I_pq_to_cache 0
Core_2_L1I_pq_full 0

Core_2_L1I_acc_epochs 205065
Core_2_L1I_acc_level_0 205065
Core_2_L1I_acc_level_1 0
Core_2_L1I_acc_level_2 0
Core_2_L1I_acc_level_3 0
Core_2_L1I_acc_level_4 0
Core_2_L1I_acc_level_5 0
Core_2_L1I_acc_level_6 0
Core_2_L1I_acc_level_7 0
Core_2_L1I_acc_level_8 0
Core_2_L1I_acc_level_9 0

Core_2_L2C_total_access 3019233
Core_2_L2C_total_hit 1370512
Core_2_L2C_total_miss 1648721
Core_2_L2C_loads 1669912
Core_2_L2C_load_hit 722839
Core_2_L2C_load_miss 947073
Core_2_L2C_RFOs 176333
Core_2_L2C_RFO_hit 26101
Core_2_L2C_RFO_miss 150232
Core_2_L2C_prefetches 762863
Core_2_L2C_prefetch_hit 213746
Core_2_L2C_prefetch_miss 549117
Core_2_L2C_writebacks 410125
Core_2_L2C_writeback_hit 407826
Core_2_L2C_writeback_miss 2299
Core_2_L2C_prefetch_requested 2354289
Core_2_L2C_prefetch_dropped 0
Core_2_L2C_prefetch_issued 2354289
Core_2_L2C_prefetch_filled 775855
Core_2_L2C_prefetch_useful 614941
Core_2_L2C_prefetch_useless 160671
Core_2_L2C_prefetch_late 44853
Core_2_L2C_average_miss_latency 183.27664

Core_2_L2C_rq_access 1846264
Core_2_L2C_rq_forward 0
Core_2_L2C_rq_merged 0
Core_2_L2C_rq_to_cache 1846245
Core_2_L2C_rq_full 0

Core_2_L2C_wq_access 410125
Core_2_L2C_wq_forward 19
Core_2_L2C_wq_merged 0
Core_2_L2C_wq_to_cache 410125
Core_2_L2C_wq_full 0

Core_2_L2C_pq_access 2354289
Core_2_L2C_pq_forward 0
Core_2_L2C_pq_merged 0
Core_2_L2C_pq_to_cache 2354289
Core_2_L2C_pq_full 0

Core_2_L2C_acc_epochs 205065
Core_2_L2C_acc_level_0 61444
Core_2_L2C_acc_level_1 11965
Core_2_L2C_acc_level_2 11190
Core_2_L2C_acc_level_3 9902
Core_2_L2C_acc_level_4 8306
Core_2_L2C_acc_level_5 11007
Core_2_L2C_acc_level_6 8787
Core_2_L2C_acc_level_7 8208
Core_2_L2C_acc_level_8 8042
Core_2_L2C_acc_level_9 66214

Core_2_LLC_total_access 2844860
Core_2_LLC_total_hit 1206825
Core_2_LLC_total_miss 1638035
Core_2_LLC_loads 903650
Core_2_LLC_load_hit 377428
Core_2_LLC_load_miss 526222
Core_2_LLC_RFOs 150220
Core_2_LLC_RFO_hit 40926
Core_2_LLC_RFO_miss 109294
Core_2_LLC_prefetches 1419876
Core_2_LLC_prefetch_hit 535513
Core_2_LLC_prefetch_miss 884363
Core_2_LLC_writebacks 371114
Core_2_LLC_writeback_hit 252958
Core_2_LLC_writeback_miss 118156
Core_2_LLC_prefetch_requested 0
Core_2_LLC_prefetch_dropped 0
Core_2_LLC_prefetch_issued 0
Core_2_LLC_prefetch_filled 4688778
Core_2_LLC_prefetch_useful 469722
Core_2_LLC_prefetch_useless 4163496
Core_2_LLC_prefetch_late 9734
Core_2_LLC_average_miss_latency 760.10900

Core_2_LLC_rq_access 4058945
Core_2_LLC_rq_forward 0
Core_2_LLC_rq_merged 0
Core_2_LLC_rq_to_cache 4058930
Core_2_LLC_rq_full 0

Core_2_LLC_wq_access 1543422
Core_2_LLC_wq_forward 20
Core_2_LLC_wq_merged 0
Core_2_LLC_wq_to_cache 1543422
Core_2_LLC_wq_full 0

Core_2_LLC_pq_access 7588053
Core_2_LLC_pq_forward 0
Core_2_LLC_pq_merged 0
Core_2_LLC_pq_to_cache 7588048
Core_2_LLC_pq_full 0

Core_2_LLC_acc_epochs 481113
Core_2_LLC_acc_level_0 277951
Core_2_LLC_acc_level_1 87690
Core_2_LLC_acc_level_2 47933
Core_2_LLC_acc_level_3 22509
Core_2_LLC_acc_level_4 8754
Core_2_LLC_acc_level_5 17246
Core_2_LLC_acc_level_6 5084
Core_2_LLC_acc_level_7 3255
Core_2_LLC_acc_level_8 1766
Core_2_LLC_acc_level_9 8925

Core_2_major_page_fault 0
Core_2_minor_page_fault 50901

Core_3_instructions 150000002
Core_3_cycles 454496179
Core_3_IPC 0.33004

Core_3_branch_prediction_accuracy 97.70208
Core_3_branch_MPKI 3.09879
Core_3_average_ROB_occupancy_at_mispredict 106.33827

Core_3_L1D_total_access 16670982
Core_3_L1D_total_hit 15393082
Core_3_L1D_total_miss 1277900
Core_3_L1D_loads 11162691
Core_3_L1D_load_hit 10054039
Core_3_L1D_load_miss 1108652
Core_3_L1D_RFOs 5508291
Core_3_L1D_RFO_hit 5339043
Core_3_L1D_RFO_miss 169248
Core_3_L1D_prefetches 0
Core_3_L1D_prefetch_hit 0
Core_3_L1D_prefetch_miss 0
Core_3_L1D_writebacks 0
Core_3_L1D_writeback_hit 0
Core_3_L1D_writeback_miss 0
Core_3_L1D_prefetch_requested 0
Core_3_L1D_prefetch_dropped 0
Core_3_L1D_prefetch_issued 0
Core_3_L1D_prefetch_filled 0
Core_3_L1D_prefetch_useful 0
Core_3_L1D_prefetch_useless 0
Core_3_L1D_prefetch_late 0
Core_3_L1D_average_miss_latency 164.60185

Core_3_L1D_rq_access 19281478
Core_3_L1D_rq_forward 0
Core_3_L1D_rq_merged 7699214
Core_3_L1D_rq_to_cache 11581827
Core_3_L1D_rq_full 0

Core_3_L1D_wq_access 6372688
Core_3_L1D_wq_forward 437
Core_3_L1D_wq_merged 136307
Core_3_L1D_wq_to_cache 6236381
Core_3_L1D_wq_full 0

Core_3_L1D_pq_access 0
Core_3_L1D_pq_forward 0
Core_3_L1D_pq_merged 0
Core_3_L1D_pq_to_cache 0
Core_3_L1D_pq_full 0

Core_3_L1D_acc_epochs 201160
Core_3_L1D_acc_level_0 201160
Core_3_L1D_acc_level_1 0
Core_3_L1D_acc_level_2 0
Core_3_L1D_acc_level_3 0
Core_3_L1D_acc_level_4 0
Core_3_L1D_acc_level_5 0
Core_3_L1D_acc_level_6 0
Core_3_L1D_acc_level_7 0
Core_3_L1D_acc_level_8 0
Core_3_L1D_acc_level_9 0

Core_3_L1I_total_access 31872540
Core_3_L1I_total_hit 31544309
Core_3_L1I_total_miss 328231
Core_3_L1I_loads 31872540
Core_3_L1I_load_hit 31544309
Core_3_L1I_load_miss 328231
Core_3_L1I_RFOs 0
Core_3_L1I_RFO_hit 0
Core_3_L1I_RFO_miss 0
Core_3_L1I_prefetches 0
Core_3_L1I_prefetch_hit 0
Core_3_L1I_prefetch_miss 0
Core_3_L1I_writebacks 0
Core_3_L1I_writeback_hit 0
Core_3_L1I_writeback_miss 0
Core_3_L1I_prefetch_requested 0
Core_3_L1I_prefetch_dropped 0
Core_3_L1I_prefetch_issued 0
Core_3_L1I_prefetch_filled 0
Core_3_L1I_prefetch_useful 0
Core_3_L1I_prefetch_useless 0
Core_3_L1I_prefetch_late 0
Core_3_L1I_average_miss_latency 87.66654

Core_3_L1I_rq_access 155384835
Core_3_L1I_rq_forward 0
Core_3_L1I_rq_merged 122202588
Core_3_L1I_rq_to_cache 33182247
Core_3_L1I_rq_full 0

Core_3_L1I_wq_access 0
Core_3_L1I_wq_forward 0
Core_3_L1I_wq_merged 0
Core_3_L1I_wq_to_cache 0
Core_3_L1I_wq_full 0

Core_3_L1I_pq_access 0
Core_3_L1I_pq_forward 0
Core_3_L1I_pq_merged 0
Core_3_L1I_pq_to_cache 0
Core_3_L1I_pq_full 0

Core_3_L1I_acc_epochs 201160
Core_3_L1I_acc_level_0 201160
Core_3_L1I_acc_level_1 0
Core_3_L1I_acc_level_2 0
Core_3_L1I_acc_level_3 0
Core_3_L1I_acc_level_4 0
Core_3_L1I_acc_level_5 0
Core_3_L1I_acc_level_6 0
Core_3_L1I_acc_level_7 0
Core_3_L1I_acc_level_8 0
Core_3_L1I_acc_level_9 0

Core_3_L2C_total_access 2703281
Core_3_L2C_total_hit 1231774
Core_3_L2C_total_miss 1471507
Core_3_L2C_loads 1436878
Core_3_L2C_load_hit 617307
Core_3_L2C_load_miss 819571
Core_3_L2C_RFOs 169238
Core_3_L2C_RFO_hit 20856
Core_3_L2C_RFO_miss 148382
Core_3_L2C_prefetches 679930
Core_3_L2C_prefetch_hit 178393
Core_3_L2C_prefetch_miss 501537
Core_3_L2C_writebacks 417235
Core_3_L2C_writeback_hit 415218
Core_3_L2C_writeback_miss 2017
Core_3_L2C_prefetch_requested 2208589
Core_3_L2C_prefetch_dropped 0
Core_3_L2C_prefetch_issued 2208589
Core_3_L2C_prefetch_filled 668810
Core_3_L2C_prefetch_useful 498638
Core_3_L2C_prefetch_useless 169583
Core_3_L2C_prefetch_late 20198
Core_3_L2C_average_miss_latency 194.44958

Core_3_L2C_rq_access 1656645
Core_3_L2C_rq_forward 0
Core_3_L2C_rq_merged 0
Core_3_L2C_rq_to_cache 1656630
Core_3_L2C_rq_full 0

Core_3_L2C_wq_access 429861
Core_3_L2C_wq_forward 15
Core_3_L2C_wq_merged 0
Core_3_L2C_wq_to_cache 429861
Core_3_L2C_wq_full 0

Core_3_L2C_pq_access 2208589
Core_3_L2C_pq_forward 0
Core_3_L2C_pq_merged 0
Core_3_L2C_pq_to_cache 2208589
Core_3_L2C_pq_full 0

Core_3_L2C_acc_epochs 201160
Core_3_L2C_acc_level_0 47158
Core_3_L2C_acc_level_1 12049
Core_3_L2C_acc_level_2 11434
Core_3_L2C_acc_level_3 10195
Core_3_L2C_acc_level_4 8717
Core_3_L2C_acc_level_5 11730
Core_3_L2C_acc_level_6 9262
Core_3_L2C_acc_level_7 8643
Core_3_L2C_acc_level_8 8407
Core_3_L2C_acc_level_9 73565

Core_3_LLC_total_access 2752385
Core_3_LLC_total_hit 1228231
Core_3_LLC_total_miss 1524154
Core_3_LLC_loads 800558
Core_3_LLC_load_hit 338777
Core_3_LLC_load_miss 461781
Core_3_LLC_RFOs 148368
Core_3_LLC_RFO_hit 35412
Core_3_LLC_RFO_miss 112956
Core_3_LLC_prefetches 1419454
Core_3_LLC_prefetch_hit 591830
Core_3_LLC_prefetch_miss 827624
Core_3_LLC_writebacks 384005
Core_3_LLC_writeback_hit 262212
Core_3_LLC_writeback_miss 121793
Core_3_LLC_prefetch_requested 0
Core_3_LLC_prefetch_dropped 0
Core_3_LLC_prefetch_issued 0
Core_3_LLC_prefetch_filled 4688778
Core_3_LLC_prefetch_useful 469722
Core_3_LLC_prefetch_useless 4163496
Core_3_LLC_prefetch_late 9734
Core_3_LLC_average_miss_latency 816.90245

Core_3_LLC_rq_access 4058945
Core_3_LLC_rq_forward 0
Core_3_LLC_rq_merged 0
Core_3_LLC_rq_to_cache 4058930
Core_3_LLC_rq_full 0

Core_3_LLC_wq_access 1543422
Core_3_LLC_wq_forward 20
Core_3_LLC_wq_merged 0
Core_3_LLC_wq_to_cache 1543422
Core_3_LLC_wq_full 0

Core_3_LLC_pq_access 7588053
Core_3_LLC_pq_forward 0
Core_3_LLC_pq_merged 0
Core_3_LLC_pq_to_cache 7588048
Core_3_LLC_pq_full 0

Core_3_LLC_acc_epochs 481113
Core_3_LLC_acc_level_0 277951
Core_3_LLC_acc_level_1 87690
Core_3_LLC_acc_level_2 47933
Core_3_LLC_acc_level_3 22509
Core_3_LLC_acc_level_4 8754
Core_3_LLC_acc_level_5 17246
Core_3_LLC_acc_level_6 5084
Core_3_LLC_acc_level_7 3255
Core_3_LLC_acc_level_8 1766
Core_3_LLC_acc_level_9 8925

Core_3_major_page_fault 0
Core_3_minor_page_fault 47375

[Bingo] PHT Access: 762294
[Bingo] PHT Hit PC+Addr: 168994
[Bingo] PHT Hit PC+Offs: 329089
[Bingo] PHT Miss: 264211
[Bingo] Prefetch PC+Addr: 0
[Bingo] Prefetch PC+Offs: 0
[Bingo] Useful PC+Addr: 0
[Bingo] Useful PC+Offs: 0
[Bingo] Useless PC+Addr: 0
[Bingo] Useless PC+Offs: 0
[Bingo] L1 Prefetch per Region: 0.00000
[Bingo] L2 Prefetch per Region: 3.63980
[Bingo] L3 Prefetch per Region: 2.43624
[Bingo] No Prefetch per Region: 25.92396
[Bingo] Number of Voters Mean: 7.20199
[Bingo] Number of Voters SD: 5.14925

[Bingo] PHT Access: 726025
[Bingo] PHT Hit PC+Addr: 148847
[Bingo] PHT Hit PC+Offs: 324323
[Bingo] PHT Miss: 252855
[Bingo] Prefetch PC+Addr: 0
[Bingo] Prefetch PC+Offs: 0
[Bingo] Useful PC+Addr: 0
[Bingo] Useful PC+Offs: 0
[Bingo] Useless PC+Addr: 0
[Bingo] Useless PC+Offs: 0
[Bingo] L1 Prefetch per Region: 0.00000
[Bingo] L2 Prefetch per Region: 3.34455
[Bingo] L3 Prefetch per Region: 2.15038
[Bingo] No Prefetch per Region: 26.50507
[Bingo] Number of Voters Mean: 6.52385
[Bingo] Number of Voters SD: 5.10153

[Bingo] PHT Access: 733817
[Bingo] PHT Hit PC+Addr: 134856
[Bingo] PHT Hit PC+Offs: 379111
[Bingo] PHT Miss: 219850
[Bingo] Prefetch PC+Addr: 0
[Bingo] Prefetch PC+Offs: 0
[Bingo] Useful PC+Addr: 0
[Bingo] Useful PC+Offs: 0
[Bingo] Useless PC+Addr: 0
[Bingo] Useless PC+Offs: 0
[Bingo] L1 Prefetch per Region: 0.00000
[Bingo] L2 Prefetch per Region: 3.35250
[Bingo] L3 Prefetch per Region: 2.24302
[Bingo] No Prefetch per Region: 26.40448
[Bingo] Number of Voters Mean: 8.40149
[Bingo] Number of Voters SD: 5.55703

[Bingo] PHT Access: 721079
[Bingo] PHT Hit PC+Addr: 112514
[Bingo] PHT Hit PC+Offs: 375495
[Bingo] PHT Miss: 233070
[Bingo] Prefetch PC+Addr: 0
[Bingo] Prefetch PC+Offs: 0
[Bingo] Useful PC+Addr: 0
[Bingo] Useful PC+Offs: 0
[Bingo] Useless PC+Addr: 0
[Bingo] Useless PC+Offs: 0
[Bingo] L1 Prefetch per Region: 0.00000
[Bingo] L2 Prefetch per Region: 2.92219
[Bingo] L3 Prefetch per Region: 2.61683
[Bingo] No Prefetch per Region: 26.46098
[Bingo] Number of Voters Mean: 6.89278
[Bingo] Number of Voters SD: 5.15403

Channel_0_RQ_row_buffer_hit 644752
Channel_0_RQ_row_buffer_miss 2270002
Channel_0_WQ_row_buffer_hit 95698
Channel_0_WQ_row_buffer_miss 562795
Channel_0_WQ_full 0
Channel_0_dbus_congested 1524999

Channel_1_RQ_row_buffer_hit 627379
Channel_1_RQ_row_buffer_miss 2276724
Channel_1_WQ_row_buffer_hit 97016
Channel_1_WQ_row_buffer_miss 563052
Channel_1_WQ_full 0
Channel_1_dbus_congested 1505764

avg_congested_cycle 10

DRAM_bw_pochs 1924450
DRAM_bw_level_0 1637906
DRAM_bw_level_1 186147
DRAM_bw_level_2 48651
DRAM_bw_level_3 51746
