*************************************************
   ChampSim Multicore Out-of-Order Simulator
   Last compiled: Mar 31 2025 20:14:32
*************************************************
parsing config file: /data3/config/mlop.ini

trace_0 /data3/CASSANDRA/traces/cassandra_phase5_core0.trace.xz
trace_1 /data3/CASSANDRA/traces/cassandra_phase5_core1.trace.xz
trace_2 /data3/CASSANDRA/traces/cassandra_phase5_core2.trace.xz
trace_3 /data3/CASSANDRA/traces/cassandra_phase5_core3.trace.xz
adding L2C_PREFETCHER: MLOP
adding L2C_PREFETCHER: MLOP
adding L2C_PREFETCHER: MLOP
adding L2C_PREFETCHER: MLOP
Initialize SHIP state
warmup_instructions 50000000
simulation_instructions 150000000
champsim_seed 8762
measure_ipc 0
measure_ipc_epoch 1000
measure_dram_bw 1
measure_dram_bw_epoch 256
measure_cache_acc 1
measure_cache_acc_epoch 1024
l1d_perfect 0
l2c_perfect 0
llc_perfect 0
l1d_semi_perfect 0
l2c_semi_perfect 0
llc_semi_perfect 0
semi_perfect_cache_page_buffer_size 64

num_cpus 4
cpu_freq 4000
dram_io_freq 2400
page_size 4096
block_size 64
max_read_per_cycle 8
max_fill_per_cycle 1
dram_channels 2
log2_dram_channels 1
dram_ranks 1
dram_banks 8
dram_rows 65536
dram_columns 128
dram_row_size 8
dram_size 8192
dram_pages 2097152

fetch_width 6
decode_width 6
exec_width 4
lq_width 2
sq_width 2
retire_width 4
scheduler_size 128
branch_mispredict_penalty 20
rob_size 256
lq_size 72
sq_size 56
num_instr_destinations_sparc 4
num_instr_destinations 2
num_instr_sources 4

itlb_set 16
itlb_way 8
itlb_rq_size 16
itlb_wq_size 16
itlb_pq_size 0
itlb_mshr_size 8
itlb_latency 1

dtlb_set 16
dtlb_way 4
dtlb_rq_size 16
dtlb_wq_size 16
dtlb_pq_size 0
dtlb_mshr_size 8
dtlb_latency 1

stlb_set 128
stlb_way 12
stlb_rq_size 32
stlb_wq_size 32
stlb_pq_size 0
stlb_mshr_size 16
stlb_latency 8

l1i_size 32
l1i_set 64
l1i_way 8
l1i_rq_size 64
l1i_wq_size 64
l1i_pq_size 8
l1i_mshr_size 8
l1i_latency 1

l1d_size 32
l1d_set 64
l1d_way 8
l1d_rq_size 64
l1d_wq_size 64
l1d_pq_size 8
l1d_mshr_size 16
l1d_latency 4

l2c_size 256
l2c_set 512
l2c_way 8
l2c_rq_size 32
l2c_wq_size 32
l2c_pq_size 32
l2c_mshr_size 32
l2c_latency 10

llc_size 8192
llc_set 8192
llc_way 16
llc_rq_size 128
llc_wq_size 128
llc_pq_size 128
llc_mshr_size 256
llc_latency 20

dram_channel_width 8
dram_wq_size 64
dram_rq_size 64
tRP 15
tRCD 15
tCAS 12.5
dram_dbus_turn_around_time 30
dram_write_high_wm 56
dram_write_low_wm 48
min_dram_writes_per_switch 16
dram_mtps 2400
dram_dbus_return_time 13

mlop_pref_degree 16
mlop_num_updates 500
mlop_l1d_thresh 2
mlop_l2c_thresh 0.75
mlop_llc_thresh 0.3
mlop_debug_level 0
mlop_blocks_in_cache 4096
mlop_blocks_in_zone 64
mlop_amt_size 2048
mlop_PF_DEGREE 16
mlop_NUM_UPDATES 500
mlop_L1D_THRESH 1000
mlop_L2C_THRESH 375
mlop_LLC_THRESH 150
mlop_ORIGIN 63
mlop_MAX_OFFSET 63
mlop_MIN_OFFSET -63
mlop_ORIGIN 63
mlop_NUM_OFFSETS 127


Heartbeat CPU  1 instructions:    1000001 cycles:     374480 heartbeat IPC: 2.67037 cumulative IPC: 2.67037 (Simulation time: 0 hr 0 min 6 sec) 
Heartbeat CPU  3 instructions:    1000002 cycles:     397672 heartbeat IPC: 2.51464 cumulative IPC: 2.51464 (Simulation time: 0 hr 0 min 6 sec) 
Heartbeat CPU  2 instructions:    1000000 cycles:     469243 heartbeat IPC: 2.13109 cumulative IPC: 2.13109 (Simulation time: 0 hr 0 min 7 sec) 
Heartbeat CPU  0 instructions:    1000003 cycles:     524350 heartbeat IPC: 1.90713 cumulative IPC: 1.90713 (Simulation time: 0 hr 0 min 8 sec) 
Heartbeat CPU  1 instructions:    2000003 cycles:     686481 heartbeat IPC: 3.20512 cumulative IPC: 2.91341 (Simulation time: 0 hr 0 min 11 sec) 
Heartbeat CPU  3 instructions:    2000003 cycles:     728265 heartbeat IPC: 3.02487 cumulative IPC: 2.74626 (Simulation time: 0 hr 0 min 12 sec) 
Heartbeat CPU  0 instructions:    2000000 cycles:     877587 heartbeat IPC: 2.83095 cumulative IPC: 2.27898 (Simulation time: 0 hr 0 min 14 sec) 
Heartbeat CPU  2 instructions:    2000001 cycles:     942323 heartbeat IPC: 2.11381 cumulative IPC: 2.12242 (Simulation time: 0 hr 0 min 15 sec) 
Heartbeat CPU  1 instructions:    3000001 cycles:    1040487 heartbeat IPC: 2.82481 cumulative IPC: 2.88327 (Simulation time: 0 hr 0 min 17 sec) 
Heartbeat CPU  3 instructions:    3000003 cycles:    1099216 heartbeat IPC: 2.69577 cumulative IPC: 2.72922 (Simulation time: 0 hr 0 min 18 sec) 
Heartbeat CPU  0 instructions:    3000001 cycles:    1206300 heartbeat IPC: 3.04217 cumulative IPC: 2.48694 (Simulation time: 0 hr 0 min 20 sec) 
Heartbeat CPU  1 instructions:    4000000 cycles:    1368787 heartbeat IPC: 3.04599 cumulative IPC: 2.92230 (Simulation time: 0 hr 0 min 23 sec) 
Heartbeat CPU  2 instructions:    3000002 cycles:    1384381 heartbeat IPC: 2.26215 cumulative IPC: 2.16703 (Simulation time: 0 hr 0 min 23 sec) 
Heartbeat CPU  3 instructions:    4000000 cycles:    1432600 heartbeat IPC: 2.99954 cumulative IPC: 2.79213 (Simulation time: 0 hr 0 min 24 sec) 
Heartbeat CPU  0 instructions:    4000000 cycles:    1538892 heartbeat IPC: 3.00668 cumulative IPC: 2.59927 (Simulation time: 0 hr 0 min 26 sec) 
Heartbeat CPU  1 instructions:    5000003 cycles:    1696355 heartbeat IPC: 3.05281 cumulative IPC: 2.94750 (Simulation time: 0 hr 0 min 29 sec) 
Heartbeat CPU  2 instructions:    4000000 cycles:    1714261 heartbeat IPC: 3.03140 cumulative IPC: 2.33337 (Simulation time: 0 hr 0 min 29 sec) 
Heartbeat CPU  0 instructions:    5000003 cycles:    1912829 heartbeat IPC: 2.67426 cumulative IPC: 2.61393 (Simulation time: 0 hr 0 min 32 sec) 
Heartbeat CPU  3 instructions:    5000001 cycles:    1943714 heartbeat IPC: 1.95651 cumulative IPC: 2.57240 (Simulation time: 0 hr 0 min 33 sec) 
Heartbeat CPU  1 instructions:    6000003 cycles:    2035357 heartbeat IPC: 2.94984 cumulative IPC: 2.94789 (Simulation time: 0 hr 0 min 34 sec) 
Heartbeat CPU  2 instructions:    5000002 cycles:    2100959 heartbeat IPC: 2.58600 cumulative IPC: 2.37987 (Simulation time: 0 hr 0 min 35 sec) 
Heartbeat CPU  0 instructions:    6000001 cycles:    2244075 heartbeat IPC: 3.01890 cumulative IPC: 2.67371 (Simulation time: 0 hr 0 min 38 sec) 
Heartbeat CPU  3 instructions:    6000003 cycles:    2269349 heartbeat IPC: 3.07093 cumulative IPC: 2.64393 (Simulation time: 0 hr 0 min 38 sec) 
Heartbeat CPU  2 instructions:    6000002 cycles:    2474127 heartbeat IPC: 2.67976 cumulative IPC: 2.42510 (Simulation time: 0 hr 0 min 41 sec) 
Heartbeat CPU  1 instructions:    7000003 cycles:    2556256 heartbeat IPC: 1.91976 cumulative IPC: 2.73838 (Simulation time: 0 hr 0 min 42 sec) 
Heartbeat CPU  3 instructions:    7000001 cycles:    2654491 heartbeat IPC: 2.59644 cumulative IPC: 2.63704 (Simulation time: 0 hr 0 min 44 sec) 
Heartbeat CPU  0 instructions:    7000002 cycles:    2690760 heartbeat IPC: 2.23872 cumulative IPC: 2.60150 (Simulation time: 0 hr 0 min 45 sec) 
Heartbeat CPU  2 instructions:    7000000 cycles:    2829199 heartbeat IPC: 2.81632 cumulative IPC: 2.47420 (Simulation time: 0 hr 0 min 47 sec) 
Heartbeat CPU  3 instructions:    8000000 cycles:    2991755 heartbeat IPC: 2.96503 cumulative IPC: 2.67402 (Simulation time: 0 hr 0 min 50 sec) 
Heartbeat CPU  1 instructions:    8000000 cycles:    3002532 heartbeat IPC: 2.24076 cumulative IPC: 2.66442 (Simulation time: 0 hr 0 min 50 sec) 
Heartbeat CPU  0 instructions:    8000000 cycles:    3023913 heartbeat IPC: 3.00162 cumulative IPC: 2.64558 (Simulation time: 0 hr 0 min 50 sec) 
Heartbeat CPU  2 instructions:    8000000 cycles:    3159653 heartbeat IPC: 3.02614 cumulative IPC: 2.53192 (Simulation time: 0 hr 0 min 52 sec) 
Heartbeat CPU  3 instructions:    9000002 cycles:    3322898 heartbeat IPC: 3.01985 cumulative IPC: 2.70848 (Simulation time: 0 hr 0 min 55 sec) 
Heartbeat CPU  0 instructions:    9000001 cycles:    3460879 heartbeat IPC: 2.28851 cumulative IPC: 2.60050 (Simulation time: 0 hr 0 min 57 sec) 
Heartbeat CPU  1 instructions:    9000000 cycles:    3480098 heartbeat IPC: 2.09395 cumulative IPC: 2.58613 (Simulation time: 0 hr 0 min 58 sec) 
Heartbeat CPU  2 instructions:    9000003 cycles:    3532932 heartbeat IPC: 2.67897 cumulative IPC: 2.54746 (Simulation time: 0 hr 0 min 58 sec) 
Heartbeat CPU  3 instructions:   10000001 cycles:    3692507 heartbeat IPC: 2.70556 cumulative IPC: 2.70819 (Simulation time: 0 hr 1 min 1 sec) 
Heartbeat CPU  0 instructions:   10000003 cycles:    3785394 heartbeat IPC: 3.08153 cumulative IPC: 2.64173 (Simulation time: 0 hr 1 min 3 sec) 
Heartbeat CPU  2 instructions:   10000002 cycles:    3922166 heartbeat IPC: 2.56915 cumulative IPC: 2.54961 (Simulation time: 0 hr 1 min 5 sec) 
Heartbeat CPU  1 instructions:   10000001 cycles:    3961958 heartbeat IPC: 2.07529 cumulative IPC: 2.52400 (Simulation time: 0 hr 1 min 5 sec) 
Heartbeat CPU  3 instructions:   11000001 cycles:    4108502 heartbeat IPC: 2.40388 cumulative IPC: 2.67738 (Simulation time: 0 hr 1 min 7 sec) 
Heartbeat CPU  0 instructions:   11000000 cycles:    4224697 heartbeat IPC: 2.27633 cumulative IPC: 2.60374 (Simulation time: 0 hr 1 min 9 sec) 
Heartbeat CPU  2 instructions:   11000001 cycles:    4269253 heartbeat IPC: 2.88112 cumulative IPC: 2.57656 (Simulation time: 0 hr 1 min 9 sec) 
Heartbeat CPU  1 instructions:   11000002 cycles:    4498378 heartbeat IPC: 1.86421 cumulative IPC: 2.44533 (Simulation time: 0 hr 1 min 13 sec) 
Heartbeat CPU  3 instructions:   12000000 cycles:    4575800 heartbeat IPC: 2.13996 cumulative IPC: 2.62249 (Simulation time: 0 hr 1 min 14 sec) 
Heartbeat CPU  2 instructions:   12000000 cycles:    4612476 heartbeat IPC: 2.91355 cumulative IPC: 2.60164 (Simulation time: 0 hr 1 min 15 sec) 
Heartbeat CPU  0 instructions:   12000000 cycles:    4651216 heartbeat IPC: 2.34456 cumulative IPC: 2.57997 (Simulation time: 0 hr 1 min 16 sec) 
Heartbeat CPU  1 instructions:   12000000 cycles:    4805376 heartbeat IPC: 3.25734 cumulative IPC: 2.49720 (Simulation time: 0 hr 1 min 19 sec) 
Heartbeat CPU  3 instructions:   13000000 cycles:    4909333 heartbeat IPC: 2.99820 cumulative IPC: 2.64802 (Simulation time: 0 hr 1 min 21 sec) 
Heartbeat CPU  2 instructions:   13000002 cycles:    4937511 heartbeat IPC: 3.07660 cumulative IPC: 2.63291 (Simulation time: 0 hr 1 min 21 sec) 
Heartbeat CPU  0 instructions:   13000000 cycles:    4985921 heartbeat IPC: 2.98771 cumulative IPC: 2.60734 (Simulation time: 0 hr 1 min 22 sec) 
Heartbeat CPU  1 instructions:   13000001 cycles:    5132253 heartbeat IPC: 3.05926 cumulative IPC: 2.53300 (Simulation time: 0 hr 1 min 24 sec) 
Heartbeat CPU  3 instructions:   14000000 cycles:    5287962 heartbeat IPC: 2.64111 cumulative IPC: 2.64752 (Simulation time: 0 hr 1 min 27 sec) 
Heartbeat CPU  0 instructions:   14000003 cycles:    5324969 heartbeat IPC: 2.94944 cumulative IPC: 2.62912 (Simulation time: 0 hr 1 min 27 sec) 
Heartbeat CPU  2 instructions:   14000002 cycles:    5493134 heartbeat IPC: 1.79978 cumulative IPC: 2.54864 (Simulation time: 0 hr 1 min 30 sec) 
Heartbeat CPU  1 instructions:   14000000 cycles:    5606589 heartbeat IPC: 2.10821 cumulative IPC: 2.49706 (Simulation time: 0 hr 1 min 32 sec) 
Heartbeat CPU  3 instructions:   15000001 cycles:    5610995 heartbeat IPC: 3.09566 cumulative IPC: 2.67332 (Simulation time: 0 hr 1 min 32 sec) 
Heartbeat CPU  0 instructions:   15000003 cycles:    5651890 heartbeat IPC: 3.05884 cumulative IPC: 2.65398 (Simulation time: 0 hr 1 min 33 sec) 
Heartbeat CPU  2 instructions:   15000002 cycles:    5838513 heartbeat IPC: 2.89537 cumulative IPC: 2.56915 (Simulation time: 0 hr 1 min 36 sec) 
Heartbeat CPU  3 instructions:   16000000 cycles:    5996970 heartbeat IPC: 2.59084 cumulative IPC: 2.66801 (Simulation time: 0 hr 1 min 38 sec) 
Heartbeat CPU  0 instructions:   16000000 cycles:    6018057 heartbeat IPC: 2.73099 cumulative IPC: 2.65867 (Simulation time: 0 hr 1 min 39 sec) 
Heartbeat CPU  1 instructions:   15000000 cycles:    6060902 heartbeat IPC: 2.20113 cumulative IPC: 2.47488 (Simulation time: 0 hr 1 min 40 sec) 
Heartbeat CPU  2 instructions:   16000000 cycles:    6161793 heartbeat IPC: 3.09329 cumulative IPC: 2.59665 (Simulation time: 0 hr 1 min 42 sec) 
Heartbeat CPU  3 instructions:   17000002 cycles:    6323873 heartbeat IPC: 3.05902 cumulative IPC: 2.68823 (Simulation time: 0 hr 1 min 45 sec) 
Heartbeat CPU  0 instructions:   17000002 cycles:    6351312 heartbeat IPC: 3.00071 cumulative IPC: 2.67661 (Simulation time: 0 hr 1 min 45 sec) 
Heartbeat CPU  1 instructions:   16000000 cycles:    6397578 heartbeat IPC: 2.97021 cumulative IPC: 2.50095 (Simulation time: 0 hr 1 min 46 sec) 
Heartbeat CPU  2 instructions:   17000000 cycles:    6557662 heartbeat IPC: 2.52609 cumulative IPC: 2.59239 (Simulation time: 0 hr 1 min 48 sec) 
Heartbeat CPU  0 instructions:   18000003 cycles:    6706737 heartbeat IPC: 2.81354 cumulative IPC: 2.68387 (Simulation time: 0 hr 1 min 51 sec) 
Heartbeat CPU  3 instructions:   18000003 cycles:    6719039 heartbeat IPC: 2.53058 cumulative IPC: 2.67896 (Simulation time: 0 hr 1 min 51 sec) 
Heartbeat CPU  1 instructions:   17000001 cycles:    6746773 heartbeat IPC: 2.86373 cumulative IPC: 2.51972 (Simulation time: 0 hr 1 min 52 sec) 
Heartbeat CPU  0 instructions:   19000000 cycles:    7032811 heartbeat IPC: 3.06678 cumulative IPC: 2.70162 (Simulation time: 0 hr 1 min 56 sec) 
Heartbeat CPU  3 instructions:   19000001 cycles:    7088455 heartbeat IPC: 2.70697 cumulative IPC: 2.68041 (Simulation time: 0 hr 1 min 57 sec) 
Heartbeat CPU  2 instructions:   18000000 cycles:    7104366 heartbeat IPC: 1.82914 cumulative IPC: 2.53365 (Simulation time: 0 hr 1 min 57 sec) 
Heartbeat CPU  1 instructions:   18000002 cycles:    7118892 heartbeat IPC: 2.68731 cumulative IPC: 2.52848 (Simulation time: 0 hr 1 min 57 sec) 
Heartbeat CPU  0 instructions:   20000000 cycles:    7387065 heartbeat IPC: 2.82283 cumulative IPC: 2.70744 (Simulation time: 0 hr 2 min 2 sec) 
Heartbeat CPU  3 instructions:   20000000 cycles:    7415177 heartbeat IPC: 3.06070 cumulative IPC: 2.69717 (Simulation time: 0 hr 2 min 3 sec) 
Heartbeat CPU  2 instructions:   19000001 cycles:    7547524 heartbeat IPC: 2.25653 cumulative IPC: 2.51738 (Simulation time: 0 hr 2 min 5 sec) 
Heartbeat CPU  1 instructions:   19000002 cycles:    7548341 heartbeat IPC: 2.32857 cumulative IPC: 2.51711 (Simulation time: 0 hr 2 min 5 sec) 
Heartbeat CPU  0 instructions:   21000001 cycles:    7699756 heartbeat IPC: 3.19805 cumulative IPC: 2.72736 (Simulation time: 0 hr 2 min 7 sec) 
Heartbeat CPU  1 instructions:   20000000 cycles:    7894662 heartbeat IPC: 2.88749 cumulative IPC: 2.53336 (Simulation time: 0 hr 2 min 10 sec) 
Heartbeat CPU  3 instructions:   21000002 cycles:    7907287 heartbeat IPC: 2.03207 cumulative IPC: 2.65578 (Simulation time: 0 hr 2 min 11 sec) 
Heartbeat CPU  2 instructions:   20000000 cycles:    7979155 heartbeat IPC: 2.31679 cumulative IPC: 2.50653 (Simulation time: 0 hr 2 min 12 sec) 
Heartbeat CPU  0 instructions:   22000002 cycles:    8115462 heartbeat IPC: 2.40555 cumulative IPC: 2.71087 (Simulation time: 0 hr 2 min 14 sec) 
Heartbeat CPU  3 instructions:   22000000 cycles:    8235500 heartbeat IPC: 3.04680 cumulative IPC: 2.67136 (Simulation time: 0 hr 2 min 16 sec) 
Heartbeat CPU  2 instructions:   21000002 cycles:    8308234 heartbeat IPC: 3.03879 cumulative IPC: 2.52761 (Simulation time: 0 hr 2 min 17 sec) 
Heartbeat CPU  1 instructions:   21000000 cycles:    8384568 heartbeat IPC: 2.04121 cumulative IPC: 2.50460 (Simulation time: 0 hr 2 min 18 sec) 
Heartbeat CPU  0 instructions:   23000002 cycles:    8537681 heartbeat IPC: 2.36844 cumulative IPC: 2.69394 (Simulation time: 0 hr 2 min 21 sec) 
Heartbeat CPU  2 instructions:   22000003 cycles:    8635205 heartbeat IPC: 3.05838 cumulative IPC: 2.54771 (Simulation time: 0 hr 2 min 23 sec) 
Heartbeat CPU  3 instructions:   23000001 cycles:    8668913 heartbeat IPC: 2.30727 cumulative IPC: 2.65316 (Simulation time: 0 hr 2 min 24 sec) 
Heartbeat CPU  1 instructions:   22000002 cycles:    8714331 heartbeat IPC: 3.03249 cumulative IPC: 2.52458 (Simulation time: 0 hr 2 min 25 sec) 
Heartbeat CPU  0 instructions:   24000000 cycles:    8863891 heartbeat IPC: 3.06550 cumulative IPC: 2.70761 (Simulation time: 0 hr 2 min 27 sec) 
Heartbeat CPU  2 instructions:   23000000 cycles:    8963350 heartbeat IPC: 3.04742 cumulative IPC: 2.56600 (Simulation time: 0 hr 2 min 29 sec) 
Heartbeat CPU  1 instructions:   23000001 cycles:    9037112 heartbeat IPC: 3.09807 cumulative IPC: 2.54506 (Simulation time: 0 hr 2 min 30 sec) 
Heartbeat CPU  0 instructions:   25000003 cycles:    9202126 heartbeat IPC: 2.95653 cumulative IPC: 2.71676 (Simulation time: 0 hr 2 min 32 sec) 
Heartbeat CPU  3 instructions:   24000000 cycles:    9378961 heartbeat IPC: 1.40835 cumulative IPC: 2.55892 (Simulation time: 0 hr 2 min 34 sec) 
Heartbeat CPU  2 instructions:   24000000 cycles:    9387694 heartbeat IPC: 2.35658 cumulative IPC: 2.55654 (Simulation time: 0 hr 2 min 34 sec) 
Heartbeat CPU  1 instructions:   24000000 cycles:    9434339 heartbeat IPC: 2.51745 cumulative IPC: 2.54390 (Simulation time: 0 hr 2 min 35 sec) 
Heartbeat CPU  0 instructions:   26000000 cycles:    9648113 heartbeat IPC: 2.24221 cumulative IPC: 2.69483 (Simulation time: 0 hr 2 min 39 sec) 
Heartbeat CPU  2 instructions:   25000001 cycles:    9709994 heartbeat IPC: 3.10270 cumulative IPC: 2.57467 (Simulation time: 0 hr 2 min 40 sec) 
Heartbeat CPU  1 instructions:   25000000 cycles:    9765294 heartbeat IPC: 3.02156 cumulative IPC: 2.56009 (Simulation time: 0 hr 2 min 41 sec) 
Heartbeat CPU  3 instructions:   25000000 cycles:    9853008 heartbeat IPC: 2.10950 cumulative IPC: 2.53730 (Simulation time: 0 hr 2 min 42 sec) 
Heartbeat CPU  0 instructions:   27000001 cycles:   10009671 heartbeat IPC: 2.76581 cumulative IPC: 2.69739 (Simulation time: 0 hr 2 min 45 sec) 
Heartbeat CPU  2 instructions:   26000003 cycles:   10033281 heartbeat IPC: 3.09323 cumulative IPC: 2.59138 (Simulation time: 0 hr 2 min 45 sec) 
Heartbeat CPU  1 instructions:   26000000 cycles:   10126858 heartbeat IPC: 2.76576 cumulative IPC: 2.56743 (Simulation time: 0 hr 2 min 47 sec) 
Heartbeat CPU  3 instructions:   26000002 cycles:   10338983 heartbeat IPC: 2.05772 cumulative IPC: 2.51475 (Simulation time: 0 hr 2 min 50 sec) 
Heartbeat CPU  0 instructions:   28000000 cycles:   10362400 heartbeat IPC: 2.83503 cumulative IPC: 2.70208 (Simulation time: 0 hr 2 min 51 sec) 
Heartbeat CPU  2 instructions:   27000002 cycles:   10365004 heartbeat IPC: 3.01456 cumulative IPC: 2.60492 (Simulation time: 0 hr 2 min 51 sec) 
Heartbeat CPU  1 instructions:   27000001 cycles:   10562286 heartbeat IPC: 2.29659 cumulative IPC: 2.55626 (Simulation time: 0 hr 2 min 54 sec) 
Heartbeat CPU  0 instructions:   29000001 cycles:   10686719 heartbeat IPC: 3.08339 cumulative IPC: 2.71365 (Simulation time: 0 hr 2 min 57 sec) 
Heartbeat CPU  2 instructions:   28000000 cycles:   10720135 heartbeat IPC: 2.81586 cumulative IPC: 2.61191 (Simulation time: 0 hr 2 min 57 sec) 
Heartbeat CPU  3 instructions:   27000002 cycles:   10734234 heartbeat IPC: 2.53004 cumulative IPC: 2.51532 (Simulation time: 0 hr 2 min 58 sec) 
Heartbeat CPU  1 instructions:   28000000 cycles:   10981206 heartbeat IPC: 2.38709 cumulative IPC: 2.54981 (Simulation time: 0 hr 3 min 1 sec) 
Heartbeat CPU  2 instructions:   29000000 cycles:   11045068 heartbeat IPC: 3.07756 cumulative IPC: 2.62561 (Simulation time: 0 hr 3 min 3 sec) 
Heartbeat CPU  0 instructions:   30000003 cycles:   11167605 heartbeat IPC: 2.07950 cumulative IPC: 2.68634 (Simulation time: 0 hr 3 min 4 sec) 
Heartbeat CPU  3 instructions:   28000000 cycles:   11203916 heartbeat IPC: 2.12910 cumulative IPC: 2.49913 (Simulation time: 0 hr 3 min 5 sec) 
Heartbeat CPU  1 instructions:   29000000 cycles:   11356230 heartbeat IPC: 2.66650 cumulative IPC: 2.55366 (Simulation time: 0 hr 3 min 8 sec) 
Heartbeat CPU  2 instructions:   30000002 cycles:   11367580 heartbeat IPC: 3.10067 cumulative IPC: 2.63908 (Simulation time: 0 hr 3 min 8 sec) 
Heartbeat CPU  0 instructions:   31000003 cycles:   11486732 heartbeat IPC: 3.13355 cumulative IPC: 2.69877 (Simulation time: 0 hr 3 min 10 sec) 
Heartbeat CPU  3 instructions:   29000000 cycles:   11541686 heartbeat IPC: 2.96059 cumulative IPC: 2.51263 (Simulation time: 0 hr 3 min 11 sec) 
Heartbeat CPU  1 instructions:   30000000 cycles:   11685789 heartbeat IPC: 3.03436 cumulative IPC: 2.56722 (Simulation time: 0 hr 3 min 14 sec) 
Heartbeat CPU  2 instructions:   31000000 cycles:   11693637 heartbeat IPC: 3.06694 cumulative IPC: 2.65101 (Simulation time: 0 hr 3 min 14 sec) 
Heartbeat CPU  0 instructions:   32000000 cycles:   11812213 heartbeat IPC: 3.07237 cumulative IPC: 2.70906 (Simulation time: 0 hr 3 min 16 sec) 
Heartbeat CPU  3 instructions:   30000000 cycles:   11874791 heartbeat IPC: 3.00206 cumulative IPC: 2.52636 (Simulation time: 0 hr 3 min 17 sec) 
Heartbeat CPU  1 instructions:   31000003 cycles:   12001875 heartbeat IPC: 3.16371 cumulative IPC: 2.58293 (Simulation time: 0 hr 3 min 19 sec) 
Heartbeat CPU  3 instructions:   31000002 cycles:   12205657 heartbeat IPC: 3.02238 cumulative IPC: 2.53981 (Simulation time: 0 hr 3 min 23 sec) 
Heartbeat CPU  2 instructions:   32000000 cycles:   12211486 heartbeat IPC: 1.93106 cumulative IPC: 2.62048 (Simulation time: 0 hr 3 min 23 sec) 
Heartbeat CPU  0 instructions:   33000003 cycles:   12234335 heartbeat IPC: 2.36899 cumulative IPC: 2.69733 (Simulation time: 0 hr 3 min 23 sec) 
Heartbeat CPU  1 instructions:   32000000 cycles:   12328007 heartbeat IPC: 3.06623 cumulative IPC: 2.59572 (Simulation time: 0 hr 3 min 25 sec) 
Heartbeat CPU  2 instructions:   33000000 cycles:   12602034 heartbeat IPC: 2.56050 cumulative IPC: 2.61862 (Simulation time: 0 hr 3 min 30 sec) 
Heartbeat CPU  3 instructions:   32000000 cycles:   12604297 heartbeat IPC: 2.50852 cumulative IPC: 2.53882 (Simulation time: 0 hr 3 min 30 sec) 
Heartbeat CPU  0 instructions:   34000003 cycles:   12618045 heartbeat IPC: 2.60613 cumulative IPC: 2.69455 (Simulation time: 0 hr 3 min 30 sec) 
Heartbeat CPU  1 instructions:   33000000 cycles:   12666202 heartbeat IPC: 2.95687 cumulative IPC: 2.60536 (Simulation time: 0 hr 3 min 31 sec) 
Heartbeat CPU  3 instructions:   33000001 cycles:   12961715 heartbeat IPC: 2.79785 cumulative IPC: 2.54596 (Simulation time: 0 hr 3 min 36 sec) 
Heartbeat CPU  0 instructions:   35000000 cycles:   12975394 heartbeat IPC: 2.79838 cumulative IPC: 2.69741 (Simulation time: 0 hr 3 min 36 sec) 
Heartbeat CPU  2 instructions:   34000000 cycles:   13002974 heartbeat IPC: 2.49414 cumulative IPC: 2.61479 (Simulation time: 0 hr 3 min 37 sec) 
Heartbeat CPU  1 instructions:   34000000 cycles:   13114647 heartbeat IPC: 2.22993 cumulative IPC: 2.59252 (Simulation time: 0 hr 3 min 38 sec) 
Heartbeat CPU  3 instructions:   34000003 cycles:   13347850 heartbeat IPC: 2.58977 cumulative IPC: 2.54723 (Simulation time: 0 hr 3 min 41 sec) 
Heartbeat CPU  2 instructions:   35000003 cycles:   13361692 heartbeat IPC: 2.78771 cumulative IPC: 2.61943 (Simulation time: 0 hr 3 min 42 sec) 
Heartbeat CPU  0 instructions:   36000000 cycles:   13374451 heartbeat IPC: 2.50591 cumulative IPC: 2.69170 (Simulation time: 0 hr 3 min 42 sec) 
Heartbeat CPU  1 instructions:   35000001 cycles:   13648872 heartbeat IPC: 1.87187 cumulative IPC: 2.56431 (Simulation time: 0 hr 3 min 46 sec) 
Heartbeat CPU  2 instructions:   36000000 cycles:   13735510 heartbeat IPC: 2.67509 cumulative IPC: 2.62094 (Simulation time: 0 hr 3 min 48 sec) 
Heartbeat CPU  3 instructions:   35000000 cycles:   13738140 heartbeat IPC: 2.56219 cumulative IPC: 2.54765 (Simulation time: 0 hr 3 min 48 sec) 
Heartbeat CPU  0 instructions:   37000002 cycles:   13766757 heartbeat IPC: 2.54904 cumulative IPC: 2.68763 (Simulation time: 0 hr 3 min 48 sec) 
Heartbeat CPU  3 instructions:   36000000 cycles:   14073761 heartbeat IPC: 2.97955 cumulative IPC: 2.55795 (Simulation time: 0 hr 3 min 53 sec) 
Heartbeat CPU  1 instructions:   36000000 cycles:   14124491 heartbeat IPC: 2.10252 cumulative IPC: 2.54876 (Simulation time: 0 hr 3 min 53 sec) 
Heartbeat CPU  0 instructions:   38000002 cycles:   14192796 heartbeat IPC: 2.34720 cumulative IPC: 2.67741 (Simulation time: 0 hr 3 min 54 sec) 
Heartbeat CPU  2 instructions:   37000002 cycles:   14218667 heartbeat IPC: 2.06972 cumulative IPC: 2.60221 (Simulation time: 0 hr 3 min 55 sec) 
Heartbeat CPU  3 instructions:   37000000 cycles:   14398884 heartbeat IPC: 3.07576 cumulative IPC: 2.56964 (Simulation time: 0 hr 3 min 58 sec) 
Heartbeat CPU  0 instructions:   39000002 cycles:   14569049 heartbeat IPC: 2.65779 cumulative IPC: 2.67691 (Simulation time: 0 hr 4 min 0 sec) 
Heartbeat CPU  2 instructions:   38000003 cycles:   14639383 heartbeat IPC: 2.37690 cumulative IPC: 2.59574 (Simulation time: 0 hr 4 min 1 sec) 
Heartbeat CPU  3 instructions:   38000000 cycles:   14717220 heartbeat IPC: 3.14134 cumulative IPC: 2.58201 (Simulation time: 0 hr 4 min 3 sec) 
Heartbeat CPU  1 instructions:   37000003 cycles:   14889067 heartbeat IPC: 1.30792 cumulative IPC: 2.48505 (Simulation time: 0 hr 4 min 6 sec) 
Heartbeat CPU  0 instructions:   40000000 cycles:   14895287 heartbeat IPC: 3.06524 cumulative IPC: 2.68541 (Simulation time: 0 hr 4 min 6 sec) 
Heartbeat CPU  2 instructions:   39000003 cycles:   14966322 heartbeat IPC: 3.05867 cumulative IPC: 2.60585 (Simulation time: 0 hr 4 min 7 sec) 
Heartbeat CPU  3 instructions:   39000002 cycles:   15043835 heartbeat IPC: 3.06171 cumulative IPC: 2.59242 (Simulation time: 0 hr 4 min 8 sec) 
Heartbeat CPU  1 instructions:   38000003 cycles:   15215155 heartbeat IPC: 3.06666 cumulative IPC: 2.49751 (Simulation time: 0 hr 4 min 12 sec) 
Heartbeat CPU  0 instructions:   41000001 cycles:   15270372 heartbeat IPC: 2.66606 cumulative IPC: 2.68494 (Simulation time: 0 hr 4 min 13 sec) 
Heartbeat CPU  2 instructions:   40000000 cycles:   15293093 heartbeat IPC: 3.06024 cumulative IPC: 2.61556 (Simulation time: 0 hr 4 min 13 sec) 
Heartbeat CPU  3 instructions:   40000000 cycles:   15371189 heartbeat IPC: 3.05479 cumulative IPC: 2.60227 (Simulation time: 0 hr 4 min 15 sec) 
Heartbeat CPU  1 instructions:   39000003 cycles:   15545380 heartbeat IPC: 3.02824 cumulative IPC: 2.50878 (Simulation time: 0 hr 4 min 18 sec) 
Heartbeat CPU  0 instructions:   42000002 cycles:   15588380 heartbeat IPC: 3.14458 cumulative IPC: 2.69431 (Simulation time: 0 hr 4 min 19 sec) 
Heartbeat CPU  2 instructions:   41000002 cycles:   15714212 heartbeat IPC: 2.37463 cumulative IPC: 2.60910 (Simulation time: 0 hr 4 min 21 sec) 
Heartbeat CPU  3 instructions:   41000003 cycles:   15853151 heartbeat IPC: 2.07486 cumulative IPC: 2.58624 (Simulation time: 0 hr 4 min 23 sec) 
Heartbeat CPU  0 instructions:   43000000 cycles:   15915406 heartbeat IPC: 3.05785 cumulative IPC: 2.70178 (Simulation time: 0 hr 4 min 24 sec) 
Heartbeat CPU  1 instructions:   40000000 cycles:   15945997 heartbeat IPC: 2.49614 cumulative IPC: 2.50847 (Simulation time: 0 hr 4 min 24 sec) 
Heartbeat CPU  2 instructions:   42000000 cycles:   16100158 heartbeat IPC: 2.59103 cumulative IPC: 2.60867 (Simulation time: 0 hr 4 min 27 sec) 
Heartbeat CPU  3 instructions:   42000003 cycles:   16197995 heartbeat IPC: 2.89986 cumulative IPC: 2.59291 (Simulation time: 0 hr 4 min 29 sec) 
Heartbeat CPU  0 instructions:   44000000 cycles:   16241336 heartbeat IPC: 3.06814 cumulative IPC: 2.70914 (Simulation time: 0 hr 4 min 29 sec) 
Heartbeat CPU  1 instructions:   41000003 cycles:   16369446 heartbeat IPC: 2.36157 cumulative IPC: 2.50467 (Simulation time: 0 hr 4 min 32 sec) 
Heartbeat CPU  2 instructions:   43000000 cycles:   16430810 heartbeat IPC: 3.02433 cumulative IPC: 2.61703 (Simulation time: 0 hr 4 min 33 sec) 
Heartbeat CPU  0 instructions:   45000000 cycles:   16567379 heartbeat IPC: 3.06708 cumulative IPC: 2.71618 (Simulation time: 0 hr 4 min 35 sec) 
Heartbeat CPU  3 instructions:   43000000 cycles:   16575003 heartbeat IPC: 2.65246 cumulative IPC: 2.59427 (Simulation time: 0 hr 4 min 35 sec) 
Heartbeat CPU  2 instructions:   44000000 cycles:   16788126 heartbeat IPC: 2.79864 cumulative IPC: 2.62090 (Simulation time: 0 hr 4 min 39 sec) 
Heartbeat CPU  1 instructions:   42000001 cycles:   16815291 heartbeat IPC: 2.24293 cumulative IPC: 2.49773 (Simulation time: 0 hr 4 min 39 sec) 
Heartbeat CPU  0 instructions:   46000001 cycles:   16898783 heartbeat IPC: 3.01747 cumulative IPC: 2.72209 (Simulation time: 0 hr 4 min 41 sec) 
Heartbeat CPU  3 instructions:   44000000 cycles:   16943411 heartbeat IPC: 2.71438 cumulative IPC: 2.59688 (Simulation time: 0 hr 4 min 42 sec) 
Heartbeat CPU  1 instructions:   43000001 cycles:   17167894 heartbeat IPC: 2.83605 cumulative IPC: 2.50468 (Simulation time: 0 hr 4 min 46 sec) 
Heartbeat CPU  2 instructions:   45000000 cycles:   17213089 heartbeat IPC: 2.35315 cumulative IPC: 2.61429 (Simulation time: 0 hr 4 min 46 sec) 
Heartbeat CPU  0 instructions:   47000000 cycles:   17249909 heartbeat IPC: 2.84798 cumulative IPC: 2.72465 (Simulation time: 0 hr 4 min 47 sec) 
Heartbeat CPU  3 instructions:   45000002 cycles:   17270174 heartbeat IPC: 3.06033 cumulative IPC: 2.60565 (Simulation time: 0 hr 4 min 47 sec) 
Heartbeat CPU  1 instructions:   44000000 cycles:   17494669 heartbeat IPC: 3.06021 cumulative IPC: 2.51505 (Simulation time: 0 hr 4 min 51 sec) 
Heartbeat CPU  2 instructions:   46000002 cycles:   17580014 heartbeat IPC: 2.72536 cumulative IPC: 2.61661 (Simulation time: 0 hr 4 min 53 sec) 
Heartbeat CPU  3 instructions:   46000001 cycles:   17590580 heartbeat IPC: 3.12104 cumulative IPC: 2.61504 (Simulation time: 0 hr 4 min 53 sec) 
Heartbeat CPU  0 instructions:   48000000 cycles:   17605893 heartbeat IPC: 2.80911 cumulative IPC: 2.72636 (Simulation time: 0 hr 4 min 53 sec) 
Heartbeat CPU  1 instructions:   45000002 cycles:   17847487 heartbeat IPC: 2.83433 cumulative IPC: 2.52136 (Simulation time: 0 hr 4 min 57 sec) 
Heartbeat CPU  2 instructions:   47000002 cycles:   18027118 heartbeat IPC: 2.23662 cumulative IPC: 2.60718 (Simulation time: 0 hr 4 min 59 sec) 
Heartbeat CPU  0 instructions:   49000000 cycles:   18076361 heartbeat IPC: 2.12554 cumulative IPC: 2.71072 (Simulation time: 0 hr 5 min 0 sec) 
Heartbeat CPU  1 instructions:   46000000 cycles:   18181202 heartbeat IPC: 2.99656 cumulative IPC: 2.53009 (Simulation time: 0 hr 5 min 2 sec) 
Heartbeat CPU  3 instructions:   47000002 cycles:   18182526 heartbeat IPC: 1.68935 cumulative IPC: 2.58490 (Simulation time: 0 hr 5 min 2 sec) 
Heartbeat CPU  0 instructions:   50000003 cycles:   18448791 heartbeat IPC: 2.68508 cumulative IPC: 2.71020 (Simulation time: 0 hr 5 min 6 sec) 
Heartbeat CPU  2 instructions:   48000000 cycles:   18544450 heartbeat IPC: 1.93299 cumulative IPC: 2.58838 (Simulation time: 0 hr 5 min 8 sec) 
Heartbeat CPU  3 instructions:   48000000 cycles:   18595898 heartbeat IPC: 2.41912 cumulative IPC: 2.58121 (Simulation time: 0 hr 5 min 8 sec) 
Heartbeat CPU  1 instructions:   47000001 cycles:   18609231 heartbeat IPC: 2.33629 cumulative IPC: 2.52563 (Simulation time: 0 hr 5 min 9 sec) 
Heartbeat CPU  0 instructions:   51000001 cycles:   18776965 heartbeat IPC: 3.04716 cumulative IPC: 0.05326 (Simulation time: 0 hr 5 min 12 sec) 
Heartbeat CPU  2 instructions:   49000002 cycles:   18863027 heartbeat IPC: 3.13896 cumulative IPC: 2.59767 (Simulation time: 0 hr 5 min 13 sec) 
Heartbeat CPU  1 instructions:   48000000 cycles:   18943410 heartbeat IPC: 2.99241 cumulative IPC: 2.53386 (Simulation time: 0 hr 5 min 15 sec) 
Heartbeat CPU  0 instructions:   52000000 cycles:   19100621 heartbeat IPC: 3.08970 cumulative IPC: 0.10471 (Simulation time: 0 hr 5 min 18 sec) 
Heartbeat CPU  3 instructions:   49000003 cycles:   19111677 heartbeat IPC: 1.93882 cumulative IPC: 2.56388 (Simulation time: 0 hr 5 min 18 sec) 
Heartbeat CPU  2 instructions:   50000002 cycles:   19188448 heartbeat IPC: 3.07294 cumulative IPC: 2.60573 (Simulation time: 0 hr 5 min 19 sec) 
Heartbeat CPU  1 instructions:   49000001 cycles:   19345499 heartbeat IPC: 2.48701 cumulative IPC: 2.53289 (Simulation time: 0 hr 5 min 22 sec) 
Heartbeat CPU  0 instructions:   53000002 cycles:   19426378 heartbeat IPC: 3.06978 cumulative IPC: 0.15443 (Simulation time: 0 hr 5 min 23 sec) 
Heartbeat CPU  2 instructions:   51000002 cycles:   19575057 heartbeat IPC: 2.58659 cumulative IPC: 0.05109 (Simulation time: 0 hr 5 min 25 sec) 
Heartbeat CPU  3 instructions:   50000002 cycles:   19615787 heartbeat IPC: 1.98369 cumulative IPC: 2.54897 (Simulation time: 0 hr 5 min 26 sec) 
Heartbeat CPU  1 instructions:   50000001 cycles:   19682227 heartbeat IPC: 2.96976 cumulative IPC: 2.54036 (Simulation time: 0 hr 5 min 27 sec) 

Warmup complete CPU  0 instructions:   53638979 cycles:   19682227 (Simulation time: 0 hr 5 min 27 sec) 
Warmup complete CPU  1 instructions:   50000001 cycles:   19682227 (Simulation time: 0 hr 5 min 27 sec) 
Warmup complete CPU  2 instructions:   51161970 cycles:   19682226 (Simulation time: 0 hr 5 min 27 sec) 
Warmup complete CPU  3 instructions:   50204235 cycles:   19682227 (Simulation time: 0 hr 5 min 27 sec) 

Heartbeat CPU  0 instructions:   54000001 cycles:   20870705 heartbeat IPC: 0.69236 cumulative IPC: 0.30377 (Simulation time: 0 hr 5 min 31 sec) 
Heartbeat CPU  2 instructions:   52000000 cycles:   22048857 heartbeat IPC: 0.40424 cumulative IPC: 0.35410 (Simulation time: 0 hr 5 min 34 sec) 
Heartbeat CPU  3 instructions:   51000001 cycles:   22178071 heartbeat IPC: 0.39028 cumulative IPC: 0.31884 (Simulation time: 0 hr 5 min 35 sec) 
Heartbeat CPU  1 instructions:   51000001 cycles:   22821638 heartbeat IPC: 0.31853 cumulative IPC: 0.31853 (Simulation time: 0 hr 5 min 37 sec) 
Heartbeat CPU  0 instructions:   55000000 cycles:   23920338 heartbeat IPC: 0.32791 cumulative IPC: 0.32114 (Simulation time: 0 hr 5 min 40 sec) 
Heartbeat CPU  3 instructions:   52000000 cycles:   24483795 heartbeat IPC: 0.43370 cumulative IPC: 0.37400 (Simulation time: 0 hr 5 min 43 sec) 
Heartbeat CPU  2 instructions:   53000002 cycles:   24789895 heartbeat IPC: 0.36483 cumulative IPC: 0.35986 (Simulation time: 0 hr 5 min 44 sec) 
Heartbeat CPU  1 instructions:   52000000 cycles:   25550506 heartbeat IPC: 0.36645 cumulative IPC: 0.34082 (Simulation time: 0 hr 5 min 46 sec) 
Heartbeat CPU  0 instructions:   56000000 cycles:   27129736 heartbeat IPC: 0.31158 cumulative IPC: 0.31702 (Simulation time: 0 hr 5 min 51 sec) 
Heartbeat CPU  2 instructions:   54000001 cycles:   27409762 heartbeat IPC: 0.38170 cumulative IPC: 0.36726 (Simulation time: 0 hr 5 min 52 sec) 
Heartbeat CPU  3 instructions:   53000003 cycles:   27433971 heartbeat IPC: 0.33896 cumulative IPC: 0.36066 (Simulation time: 0 hr 5 min 52 sec) 
Heartbeat CPU  1 instructions:   53000001 cycles:   28506284 heartbeat IPC: 0.33832 cumulative IPC: 0.33998 (Simulation time: 0 hr 5 min 55 sec) 
Heartbeat CPU  0 instructions:   57000002 cycles:   29417715 heartbeat IPC: 0.43707 cumulative IPC: 0.34523 (Simulation time: 0 hr 5 min 59 sec) 
Heartbeat CPU  2 instructions:   55000002 cycles:   30114814 heartbeat IPC: 0.36968 cumulative IPC: 0.36789 (Simulation time: 0 hr 6 min 1 sec) 
Heartbeat CPU  3 instructions:   54000003 cycles:   30215858 heartbeat IPC: 0.35947 cumulative IPC: 0.36035 (Simulation time: 0 hr 6 min 1 sec) 
Heartbeat CPU  1 instructions:   54000002 cycles:   31865955 heartbeat IPC: 0.29765 cumulative IPC: 0.32831 (Simulation time: 0 hr 6 min 6 sec) 
Heartbeat CPU  0 instructions:   58000000 cycles:   32264744 heartbeat IPC: 0.35124 cumulative IPC: 0.34659 (Simulation time: 0 hr 6 min 8 sec) 
Heartbeat CPU  3 instructions:   55000001 cycles:   32986231 heartbeat IPC: 0.36096 cumulative IPC: 0.36048 (Simulation time: 0 hr 6 min 10 sec) 
Heartbeat CPU  2 instructions:   56000000 cycles:   33074558 heartbeat IPC: 0.33787 cumulative IPC: 0.36125 (Simulation time: 0 hr 6 min 10 sec) 
Heartbeat CPU  1 instructions:   55000002 cycles:   34580857 heartbeat IPC: 0.36834 cumulative IPC: 0.33560 (Simulation time: 0 hr 6 min 15 sec) 
Heartbeat CPU  0 instructions:   59000002 cycles:   35038963 heartbeat IPC: 0.36046 cumulative IPC: 0.34910 (Simulation time: 0 hr 6 min 17 sec) 
Heartbeat CPU  3 instructions:   56000000 cycles:   35800164 heartbeat IPC: 0.35537 cumulative IPC: 0.35958 (Simulation time: 0 hr 6 min 20 sec) 
Heartbeat CPU  2 instructions:   57000000 cycles:   36666850 heartbeat IPC: 0.27837 cumulative IPC: 0.34372 (Simulation time: 0 hr 6 min 22 sec) 
Heartbeat CPU  0 instructions:   60000000 cycles:   37135887 heartbeat IPC: 0.47689 cumulative IPC: 0.36445 (Simulation time: 0 hr 6 min 24 sec) 
Heartbeat CPU  1 instructions:   56000000 cycles:   37287333 heartbeat IPC: 0.36948 cumulative IPC: 0.34081 (Simulation time: 0 hr 6 min 24 sec) 
Heartbeat CPU  3 instructions:   57000000 cycles:   38472056 heartbeat IPC: 0.37427 cumulative IPC: 0.36167 (Simulation time: 0 hr 6 min 28 sec) 
Heartbeat CPU  2 instructions:   58000002 cycles:   39692919 heartbeat IPC: 0.33046 cumulative IPC: 0.34172 (Simulation time: 0 hr 6 min 32 sec) 
Heartbeat CPU  1 instructions:   57000000 cycles:   40178059 heartbeat IPC: 0.34593 cumulative IPC: 0.34153 (Simulation time: 0 hr 6 min 34 sec) 
Heartbeat CPU  0 instructions:   61000003 cycles:   40185613 heartbeat IPC: 0.32790 cumulative IPC: 0.35902 (Simulation time: 0 hr 6 min 34 sec) 
Heartbeat CPU  3 instructions:   58000003 cycles:   41138429 heartbeat IPC: 0.37504 cumulative IPC: 0.36333 (Simulation time: 0 hr 6 min 37 sec) 
Heartbeat CPU  2 instructions:   59000001 cycles:   41995697 heartbeat IPC: 0.43426 cumulative IPC: 0.35127 (Simulation time: 0 hr 6 min 40 sec) 
Heartbeat CPU  0 instructions:   62000002 cycles:   42703424 heartbeat IPC: 0.39717 cumulative IPC: 0.36319 (Simulation time: 0 hr 6 min 43 sec) 
Heartbeat CPU  1 instructions:   58000001 cycles:   43203148 heartbeat IPC: 0.33057 cumulative IPC: 0.34012 (Simulation time: 0 hr 6 min 44 sec) 
Heartbeat CPU  3 instructions:   59000000 cycles:   43648807 heartbeat IPC: 0.39835 cumulative IPC: 0.36700 (Simulation time: 0 hr 6 min 46 sec) 
Heartbeat CPU  2 instructions:   60000000 cycles:   45011880 heartbeat IPC: 0.33154 cumulative IPC: 0.34892 (Simulation time: 0 hr 6 min 50 sec) 
Heartbeat CPU  0 instructions:   63000001 cycles:   45153443 heartbeat IPC: 0.40816 cumulative IPC: 0.36751 (Simulation time: 0 hr 6 min 51 sec) 
Heartbeat CPU  1 instructions:   59000000 cycles:   45413008 heartbeat IPC: 0.45252 cumulative IPC: 0.34978 (Simulation time: 0 hr 6 min 51 sec) 
Heartbeat CPU  3 instructions:   60000000 cycles:   46650856 heartbeat IPC: 0.33311 cumulative IPC: 0.36323 (Simulation time: 0 hr 6 min 56 sec) 
Heartbeat CPU  0 instructions:   64000000 cycles:   47880785 heartbeat IPC: 0.36666 cumulative IPC: 0.36743 (Simulation time: 0 hr 7 min 0 sec) 
Heartbeat CPU  2 instructions:   61000001 cycles:   47971658 heartbeat IPC: 0.33786 cumulative IPC: 0.34776 (Simulation time: 0 hr 7 min 0 sec) 
Heartbeat CPU  1 instructions:   60000000 cycles:   48215105 heartbeat IPC: 0.35688 cumulative IPC: 0.35047 (Simulation time: 0 hr 7 min 1 sec) 
Heartbeat CPU  3 instructions:   61000000 cycles:   49356512 heartbeat IPC: 0.36960 cumulative IPC: 0.36381 (Simulation time: 0 hr 7 min 4 sec) 
Heartbeat CPU  1 instructions:   61000000 cycles:   50492839 heartbeat IPC: 0.43903 cumulative IPC: 0.35702 (Simulation time: 0 hr 7 min 8 sec) 
Heartbeat CPU  0 instructions:   65000003 cycles:   50622403 heartbeat IPC: 0.36475 cumulative IPC: 0.36719 (Simulation time: 0 hr 7 min 9 sec) 
Heartbeat CPU  2 instructions:   62000000 cycles:   50698255 heartbeat IPC: 0.36676 cumulative IPC: 0.34943 (Simulation time: 0 hr 7 min 9 sec) 
Heartbeat CPU  3 instructions:   62000001 cycles:   51898166 heartbeat IPC: 0.39344 cumulative IPC: 0.36615 (Simulation time: 0 hr 7 min 13 sec) 
Heartbeat CPU  0 instructions:   66000001 cycles:   52867038 heartbeat IPC: 0.44551 cumulative IPC: 0.37249 (Simulation time: 0 hr 7 min 16 sec) 
Heartbeat CPU  2 instructions:   63000002 cycles:   53469098 heartbeat IPC: 0.36090 cumulative IPC: 0.35037 (Simulation time: 0 hr 7 min 18 sec) 
Heartbeat CPU  1 instructions:   62000000 cycles:   53734565 heartbeat IPC: 0.30848 cumulative IPC: 0.35240 (Simulation time: 0 hr 7 min 19 sec) 
Heartbeat CPU  3 instructions:   63000000 cycles:   54540208 heartbeat IPC: 0.37849 cumulative IPC: 0.36708 (Simulation time: 0 hr 7 min 22 sec) 
Heartbeat CPU  0 instructions:   67000002 cycles:   55695080 heartbeat IPC: 0.35360 cumulative IPC: 0.37101 (Simulation time: 0 hr 7 min 26 sec) 
Heartbeat CPU  1 instructions:   63000000 cycles:   55929253 heartbeat IPC: 0.45565 cumulative IPC: 0.35865 (Simulation time: 0 hr 7 min 27 sec) 
Heartbeat CPU  2 instructions:   64000000 cycles:   56258945 heartbeat IPC: 0.35844 cumulative IPC: 0.35099 (Simulation time: 0 hr 7 min 28 sec) 
Heartbeat CPU  3 instructions:   64000000 cycles:   57307486 heartbeat IPC: 0.36137 cumulative IPC: 0.36666 (Simulation time: 0 hr 7 min 31 sec) 
Heartbeat CPU  0 instructions:   68000000 cycles:   58586990 heartbeat IPC: 0.34579 cumulative IPC: 0.36913 (Simulation time: 0 hr 7 min 35 sec) 
Heartbeat CPU  1 instructions:   64000000 cycles:   58654178 heartbeat IPC: 0.36698 cumulative IPC: 0.35923 (Simulation time: 0 hr 7 min 36 sec) 
Heartbeat CPU  2 instructions:   65000003 cycles:   59005423 heartbeat IPC: 0.36410 cumulative IPC: 0.35191 (Simulation time: 0 hr 7 min 37 sec) 
Heartbeat CPU  3 instructions:   65000002 cycles:   60292047 heartbeat IPC: 0.33506 cumulative IPC: 0.36434 (Simulation time: 0 hr 7 min 41 sec) 
Heartbeat CPU  0 instructions:   69000003 cycles:   60973965 heartbeat IPC: 0.41894 cumulative IPC: 0.37201 (Simulation time: 0 hr 7 min 44 sec) 
Heartbeat CPU  2 instructions:   66000000 cycles:   61272057 heartbeat IPC: 0.44118 cumulative IPC: 0.35677 (Simulation time: 0 hr 7 min 44 sec) 
Heartbeat CPU  1 instructions:   65000003 cycles:   61379427 heartbeat IPC: 0.36694 cumulative IPC: 0.35974 (Simulation time: 0 hr 7 min 45 sec) 
Heartbeat CPU  0 instructions:   70000003 cycles:   63615496 heartbeat IPC: 0.37857 cumulative IPC: 0.37241 (Simulation time: 0 hr 7 min 52 sec) 
Heartbeat CPU  3 instructions:   66000001 cycles:   63688649 heartbeat IPC: 0.29441 cumulative IPC: 0.35894 (Simulation time: 0 hr 7 min 52 sec) 
Heartbeat CPU  2 instructions:   67000000 cycles:   64577208 heartbeat IPC: 0.30256 cumulative IPC: 0.35278 (Simulation time: 0 hr 7 min 55 sec) 
Heartbeat CPU  1 instructions:   66000001 cycles:   64732205 heartbeat IPC: 0.29826 cumulative IPC: 0.35516 (Simulation time: 0 hr 7 min 55 sec) 
Heartbeat CPU  0 instructions:   71000000 cycles:   66886097 heartbeat IPC: 0.30575 cumulative IPC: 0.36779 (Simulation time: 0 hr 8 min 2 sec) 
Heartbeat CPU  3 instructions:   67000000 cycles:   67072548 heartbeat IPC: 0.29552 cumulative IPC: 0.35441 (Simulation time: 0 hr 8 min 3 sec) 
Heartbeat CPU  2 instructions:   68000000 cycles:   67123948 heartbeat IPC: 0.39266 cumulative IPC: 0.35492 (Simulation time: 0 hr 8 min 3 sec) 
Heartbeat CPU  1 instructions:   67000003 cycles:   67276132 heartbeat IPC: 0.39309 cumulative IPC: 0.35719 (Simulation time: 0 hr 8 min 4 sec) 
Heartbeat CPU  0 instructions:   72000000 cycles:   69238650 heartbeat IPC: 0.42507 cumulative IPC: 0.37051 (Simulation time: 0 hr 8 min 10 sec) 
Heartbeat CPU  1 instructions:   68000000 cycles:   69627926 heartbeat IPC: 0.42521 cumulative IPC: 0.36039 (Simulation time: 0 hr 8 min 12 sec) 
Heartbeat CPU  3 instructions:   68000000 cycles:   69780895 heartbeat IPC: 0.36923 cumulative IPC: 0.35521 (Simulation time: 0 hr 8 min 13 sec) 
Heartbeat CPU  2 instructions:   69000000 cycles:   70037637 heartbeat IPC: 0.34321 cumulative IPC: 0.35424 (Simulation time: 0 hr 8 min 13 sec) 
Heartbeat CPU  0 instructions:   73000001 cycles:   71882994 heartbeat IPC: 0.37817 cumulative IPC: 0.37090 (Simulation time: 0 hr 8 min 19 sec) 
Heartbeat CPU  1 instructions:   69000001 cycles:   71957032 heartbeat IPC: 0.42935 cumulative IPC: 0.36346 (Simulation time: 0 hr 8 min 20 sec) 
Heartbeat CPU  3 instructions:   69000002 cycles:   72614773 heartbeat IPC: 0.35287 cumulative IPC: 0.35509 (Simulation time: 0 hr 8 min 22 sec) 
Heartbeat CPU  2 instructions:   70000000 cycles:   72894912 heartbeat IPC: 0.34998 cumulative IPC: 0.35401 (Simulation time: 0 hr 8 min 22 sec) 
Heartbeat CPU  0 instructions:   74000000 cycles:   74546634 heartbeat IPC: 0.37543 cumulative IPC: 0.37112 (Simulation time: 0 hr 8 min 28 sec) 
Heartbeat CPU  1 instructions:   70000003 cycles:   75249975 heartbeat IPC: 0.30368 cumulative IPC: 0.35992 (Simulation time: 0 hr 8 min 30 sec) 
Heartbeat CPU  3 instructions:   70000003 cycles:   75574301 heartbeat IPC: 0.33789 cumulative IPC: 0.35418 (Simulation time: 0 hr 8 min 31 sec) 
Heartbeat CPU  2 instructions:   71000001 cycles:   75859478 heartbeat IPC: 0.33732 cumulative IPC: 0.35313 (Simulation time: 0 hr 8 min 32 sec) 
Heartbeat CPU  0 instructions:   75000003 cycles:   77267251 heartbeat IPC: 0.36756 cumulative IPC: 0.37095 (Simulation time: 0 hr 8 min 37 sec) 
Heartbeat CPU  3 instructions:   71000002 cycles:   77738531 heartbeat IPC: 0.46206 cumulative IPC: 0.35820 (Simulation time: 0 hr 8 min 39 sec) 
Heartbeat CPU  1 instructions:   71000001 cycles:   78246741 heartbeat IPC: 0.33369 cumulative IPC: 0.35858 (Simulation time: 0 hr 8 min 40 sec) 
Heartbeat CPU  2 instructions:   72000000 cycles:   78347541 heartbeat IPC: 0.40192 cumulative IPC: 0.35520 (Simulation time: 0 hr 8 min 41 sec) 
Heartbeat CPU  0 instructions:   76000000 cycles:   79941528 heartbeat IPC: 0.37393 cumulative IPC: 0.37108 (Simulation time: 0 hr 8 min 46 sec) 
Heartbeat CPU  3 instructions:   72000000 cycles:   80378369 heartbeat IPC: 0.37881 cumulative IPC: 0.35910 (Simulation time: 0 hr 8 min 47 sec) 
Heartbeat CPU  1 instructions:   72000000 cycles:   80962269 heartbeat IPC: 0.36825 cumulative IPC: 0.35901 (Simulation time: 0 hr 8 min 49 sec) 
Heartbeat CPU  2 instructions:   73000003 cycles:   81384938 heartbeat IPC: 0.32923 cumulative IPC: 0.35392 (Simulation time: 0 hr 8 min 50 sec) 
Heartbeat CPU  0 instructions:   77000003 cycles:   82158975 heartbeat IPC: 0.45097 cumulative IPC: 0.37392 (Simulation time: 0 hr 8 min 53 sec) 
Heartbeat CPU  1 instructions:   73000001 cycles:   83248598 heartbeat IPC: 0.43738 cumulative IPC: 0.36183 (Simulation time: 0 hr 8 min 57 sec) 
Heartbeat CPU  3 instructions:   73000003 cycles:   83398728 heartbeat IPC: 0.33109 cumulative IPC: 0.35777 (Simulation time: 0 hr 8 min 57 sec) 
Heartbeat CPU  2 instructions:   74000003 cycles:   84342317 heartbeat IPC: 0.33814 cumulative IPC: 0.35320 (Simulation time: 0 hr 9 min 0 sec) 
Heartbeat CPU  0 instructions:   78000002 cycles:   85337970 heartbeat IPC: 0.31456 cumulative IPC: 0.37104 (Simulation time: 0 hr 9 min 4 sec) 
Heartbeat CPU  1 instructions:   74000002 cycles:   86191515 heartbeat IPC: 0.33980 cumulative IPC: 0.36085 (Simulation time: 0 hr 9 min 6 sec) 
Heartbeat CPU  3 instructions:   74000003 cycles:   86360896 heartbeat IPC: 0.33759 cumulative IPC: 0.35687 (Simulation time: 0 hr 9 min 7 sec) 
Heartbeat CPU  2 instructions:   75000000 cycles:   87048549 heartbeat IPC: 0.36952 cumulative IPC: 0.35386 (Simulation time: 0 hr 9 min 9 sec) 
Heartbeat CPU  0 instructions:   79000003 cycles:   88350069 heartbeat IPC: 0.33199 cumulative IPC: 0.36933 (Simulation time: 0 hr 9 min 13 sec) 
Heartbeat CPU  1 instructions:   75000000 cycles:   89178569 heartbeat IPC: 0.33478 cumulative IPC: 0.35973 (Simulation time: 0 hr 9 min 16 sec) 
Heartbeat CPU  3 instructions:   75000002 cycles:   89200181 heartbeat IPC: 0.35220 cumulative IPC: 0.35668 (Simulation time: 0 hr 9 min 16 sec) 
Heartbeat CPU  2 instructions:   76000000 cycles:   89749624 heartbeat IPC: 0.37022 cumulative IPC: 0.35449 (Simulation time: 0 hr 9 min 18 sec) 
Heartbeat CPU  0 instructions:   80000000 cycles:   91037525 heartbeat IPC: 0.37210 cumulative IPC: 0.36943 (Simulation time: 0 hr 9 min 22 sec) 
Heartbeat CPU  3 instructions:   76000000 cycles:   91935088 heartbeat IPC: 0.36564 cumulative IPC: 0.35702 (Simulation time: 0 hr 9 min 25 sec) 
Heartbeat CPU  2 instructions:   77000000 cycles:   91937691 heartbeat IPC: 0.45702 cumulative IPC: 0.35759 (Simulation time: 0 hr 9 min 25 sec) 
Heartbeat CPU  1 instructions:   76000000 cycles:   92103961 heartbeat IPC: 0.34183 cumulative IPC: 0.35901 (Simulation time: 0 hr 9 min 26 sec) 
Heartbeat CPU  0 instructions:   81000002 cycles:   93738883 heartbeat IPC: 0.37018 cumulative IPC: 0.36946 (Simulation time: 0 hr 9 min 31 sec) 
Heartbeat CPU  2 instructions:   78000000 cycles:   94650458 heartbeat IPC: 0.36863 cumulative IPC: 0.35799 (Simulation time: 0 hr 9 min 34 sec) 
Heartbeat CPU  3 instructions:   77000001 cycles:   94798922 heartbeat IPC: 0.34918 cumulative IPC: 0.35672 (Simulation time: 0 hr 9 min 34 sec) 
Heartbeat CPU  1 instructions:   77000003 cycles:   94888631 heartbeat IPC: 0.35911 cumulative IPC: 0.35901 (Simulation time: 0 hr 9 min 35 sec) 
Heartbeat CPU  0 instructions:   82000003 cycles:   95958615 heartbeat IPC: 0.45051 cumulative IPC: 0.37182 (Simulation time: 0 hr 9 min 38 sec) 
Heartbeat CPU  1 instructions:   78000000 cycles:   97088970 heartbeat IPC: 0.45447 cumulative IPC: 0.36173 (Simulation time: 0 hr 9 min 42 sec) 
Heartbeat CPU  2 instructions:   79000003 cycles:   97374929 heartbeat IPC: 0.36704 cumulative IPC: 0.35831 (Simulation time: 0 hr 9 min 43 sec) 
Heartbeat CPU  3 instructions:   78000002 cycles:   97946703 heartbeat IPC: 0.31768 cumulative IPC: 0.35515 (Simulation time: 0 hr 9 min 45 sec) 
Heartbeat CPU  0 instructions:   83000003 cycles:   98737803 heartbeat IPC: 0.35982 cumulative IPC: 0.37140 (Simulation time: 0 hr 9 min 48 sec) 
Heartbeat CPU  1 instructions:   79000002 cycles:   99870116 heartbeat IPC: 0.35956 cumulative IPC: 0.36165 (Simulation time: 0 hr 9 min 51 sec) 
Heartbeat CPU  2 instructions:   80000000 cycles:  100061894 heartbeat IPC: 0.37217 cumulative IPC: 0.35877 (Simulation time: 0 hr 9 min 52 sec) 
Heartbeat CPU  3 instructions:   79000003 cycles:  100386512 heartbeat IPC: 0.40987 cumulative IPC: 0.35681 (Simulation time: 0 hr 9 min 53 sec) 
Heartbeat CPU  0 instructions:   84000000 cycles:  101553252 heartbeat IPC: 0.35518 cumulative IPC: 0.37084 (Simulation time: 0 hr 9 min 57 sec) 
Heartbeat CPU  1 instructions:   80000000 cycles:  102652323 heartbeat IPC: 0.35943 cumulative IPC: 0.36158 (Simulation time: 0 hr 10 min 1 sec) 
Heartbeat CPU  2 instructions:   81000000 cycles:  103006806 heartbeat IPC: 0.33957 cumulative IPC: 0.35809 (Simulation time: 0 hr 10 min 2 sec) 
Heartbeat CPU  3 instructions:   80000000 cycles:  103106795 heartbeat IPC: 0.36761 cumulative IPC: 0.35716 (Simulation time: 0 hr 10 min 2 sec) 
Heartbeat CPU  0 instructions:   85000001 cycles:  104841247 heartbeat IPC: 0.30414 cumulative IPC: 0.36826 (Simulation time: 0 hr 10 min 8 sec) 
Heartbeat CPU  2 instructions:   82000002 cycles:  105134599 heartbeat IPC: 0.46997 cumulative IPC: 0.36088 (Simulation time: 0 hr 10 min 9 sec) 
Heartbeat CPU  1 instructions:   81000000 cycles:  105404991 heartbeat IPC: 0.36328 cumulative IPC: 0.36163 (Simulation time: 0 hr 10 min 10 sec) 
Heartbeat CPU  3 instructions:   81000001 cycles:  105823038 heartbeat IPC: 0.36816 cumulative IPC: 0.35750 (Simulation time: 0 hr 10 min 11 sec) 
Heartbeat CPU  2 instructions:   83000002 cycles:  107790015 heartbeat IPC: 0.37659 cumulative IPC: 0.36135 (Simulation time: 0 hr 10 min 17 sec) 
Heartbeat CPU  0 instructions:   86000000 cycles:  107816942 heartbeat IPC: 0.33606 cumulative IPC: 0.36718 (Simulation time: 0 hr 10 min 17 sec) 
Heartbeat CPU  3 instructions:   82000002 cycles:  108818563 heartbeat IPC: 0.33383 cumulative IPC: 0.35671 (Simulation time: 0 hr 10 min 21 sec) 
Heartbeat CPU  1 instructions:   82000003 cycles:  108936385 heartbeat IPC: 0.28318 cumulative IPC: 0.35853 (Simulation time: 0 hr 10 min 21 sec) 
Heartbeat CPU  0 instructions:   87000000 cycles:  109982746 heartbeat IPC: 0.46172 cumulative IPC: 0.36944 (Simulation time: 0 hr 10 min 24 sec) 
Heartbeat CPU  2 instructions:   84000000 cycles:  110435988 heartbeat IPC: 0.37793 cumulative IPC: 0.36184 (Simulation time: 0 hr 10 min 26 sec) 
Heartbeat CPU  3 instructions:   83000003 cycles:  111470554 heartbeat IPC: 0.37708 cumulative IPC: 0.35730 (Simulation time: 0 hr 10 min 29 sec) 
Heartbeat CPU  1 instructions:   83000002 cycles:  111832697 heartbeat IPC: 0.34527 cumulative IPC: 0.35811 (Simulation time: 0 hr 10 min 30 sec) 
Heartbeat CPU  0 instructions:   88000000 cycles:  112883798 heartbeat IPC: 0.34470 cumulative IPC: 0.36867 (Simulation time: 0 hr 10 min 34 sec) 
Heartbeat CPU  2 instructions:   85000001 cycles:  113091237 heartbeat IPC: 0.37661 cumulative IPC: 0.36226 (Simulation time: 0 hr 10 min 35 sec) 
Heartbeat CPU  3 instructions:   84000000 cycles:  114137788 heartbeat IPC: 0.37492 cumulative IPC: 0.35780 (Simulation time: 0 hr 10 min 38 sec) 
Heartbeat CPU  1 instructions:   84000000 cycles:  114845211 heartbeat IPC: 0.33195 cumulative IPC: 0.35728 (Simulation time: 0 hr 10 min 40 sec) 
Heartbeat CPU  0 instructions:   89000001 cycles:  115567537 heartbeat IPC: 0.37261 cumulative IPC: 0.36878 (Simulation time: 0 hr 10 min 43 sec) 
Heartbeat CPU  2 instructions:   86000002 cycles:  116234794 heartbeat IPC: 0.31811 cumulative IPC: 0.36082 (Simulation time: 0 hr 10 min 45 sec) 
Heartbeat CPU  3 instructions:   85000000 cycles:  116845984 heartbeat IPC: 0.36925 cumulative IPC: 0.35811 (Simulation time: 0 hr 10 min 47 sec) 
Heartbeat CPU  1 instructions:   85000001 cycles:  117454608 heartbeat IPC: 0.38323 cumulative IPC: 0.35797 (Simulation time: 0 hr 10 min 49 sec) 
Heartbeat CPU  2 instructions:   87000002 cycles:  118735205 heartbeat IPC: 0.39993 cumulative IPC: 0.36181 (Simulation time: 0 hr 10 min 53 sec) 
Heartbeat CPU  0 instructions:   90000002 cycles:  118787731 heartbeat IPC: 0.31054 cumulative IPC: 0.36689 (Simulation time: 0 hr 10 min 53 sec) 
Heartbeat CPU  3 instructions:   86000000 cycles:  119465461 heartbeat IPC: 0.38176 cumulative IPC: 0.35874 (Simulation time: 0 hr 10 min 55 sec) 
Heartbeat CPU  1 instructions:   86000003 cycles:  121134740 heartbeat IPC: 0.27173 cumulative IPC: 0.35485 (Simulation time: 0 hr 11 min 0 sec) 
Heartbeat CPU  2 instructions:   88000000 cycles:  121313536 heartbeat IPC: 0.38785 cumulative IPC: 0.36247 (Simulation time: 0 hr 11 min 1 sec) 
Heartbeat CPU  0 instructions:   91000000 cycles:  121529568 heartbeat IPC: 0.36472 cumulative IPC: 0.36683 (Simulation time: 0 hr 11 min 1 sec) 
Heartbeat CPU  0 instructions:   92000000 cycles:  123697087 heartbeat IPC: 0.46136 cumulative IPC: 0.36880 (Simulation time: 0 hr 11 min 7 sec) 
Heartbeat CPU  3 instructions:   87000001 cycles:  123732017 heartbeat IPC: 0.23438 cumulative IPC: 0.35364 (Simulation time: 0 hr 11 min 8 sec) 
Heartbeat CPU  2 instructions:   89000000 cycles:  123847938 heartbeat IPC: 0.39457 cumulative IPC: 0.36325 (Simulation time: 0 hr 11 min 8 sec) 
Heartbeat CPU  2 instructions:   90000003 cycles:  125929114 heartbeat IPC: 0.48050 cumulative IPC: 0.36555 (Simulation time: 0 hr 11 min 14 sec) 
Heartbeat CPU  1 instructions:   87000000 cycles:  126092525 heartbeat IPC: 0.20170 cumulative IPC: 0.34771 (Simulation time: 0 hr 11 min 14 sec) 
Heartbeat CPU  0 instructions:   93000000 cycles:  126408157 heartbeat IPC: 0.36886 cumulative IPC: 0.36880 (Simulation time: 0 hr 11 min 15 sec) 
Heartbeat CPU  3 instructions:   88000000 cycles:  127544520 heartbeat IPC: 0.26229 cumulative IPC: 0.35041 (Simulation time: 0 hr 11 min 18 sec) 
Heartbeat CPU  2 instructions:   91000000 cycles:  129005043 heartbeat IPC: 0.32510 cumulative IPC: 0.36441 (Simulation time: 0 hr 11 min 22 sec) 
Heartbeat CPU  0 instructions:   94000002 cycles:  129160584 heartbeat IPC: 0.36332 cumulative IPC: 0.36867 (Simulation time: 0 hr 11 min 23 sec) 
Heartbeat CPU  3 instructions:   89000003 cycles:  130231283 heartbeat IPC: 0.37220 cumulative IPC: 0.35094 (Simulation time: 0 hr 11 min 26 sec) 
Heartbeat CPU  0 instructions:   95000002 cycles:  131913638 heartbeat IPC: 0.36323 cumulative IPC: 0.36853 (Simulation time: 0 hr 11 min 31 sec) 
Heartbeat CPU  2 instructions:   92000000 cycles:  132032455 heartbeat IPC: 0.33032 cumulative IPC: 0.36349 (Simulation time: 0 hr 11 min 31 sec) 
Heartbeat CPU  3 instructions:   90000003 cycles:  132472639 heartbeat IPC: 0.44616 cumulative IPC: 0.35283 (Simulation time: 0 hr 11 min 33 sec) 
Heartbeat CPU  1 instructions:   88000000 cycles:  132476452 heartbeat IPC: 0.15664 cumulative IPC: 0.33690 (Simulation time: 0 hr 11 min 33 sec) 
Heartbeat CPU  0 instructions:   96000000 cycles:  134147196 heartbeat IPC: 0.44772 cumulative IPC: 0.37008 (Simulation time: 0 hr 11 min 37 sec) 
Heartbeat CPU  2 instructions:   93000001 cycles:  135015666 heartbeat IPC: 0.33521 cumulative IPC: 0.36276 (Simulation time: 0 hr 11 min 40 sec) 
Heartbeat CPU  3 instructions:   91000001 cycles:  135134821 heartbeat IPC: 0.37563 cumulative IPC: 0.35336 (Simulation time: 0 hr 11 min 40 sec) 
Heartbeat CPU  0 instructions:   97000002 cycles:  136860726 heartbeat IPC: 0.36852 cumulative IPC: 0.37004 (Simulation time: 0 hr 11 min 45 sec) 
Heartbeat CPU  2 instructions:   94000003 cycles:  137822832 heartbeat IPC: 0.35623 cumulative IPC: 0.36260 (Simulation time: 0 hr 11 min 47 sec) 
Heartbeat CPU  1 instructions:   89000000 cycles:  137911541 heartbeat IPC: 0.18399 cumulative IPC: 0.32987 (Simulation time: 0 hr 11 min 48 sec) 
Heartbeat CPU  3 instructions:   92000000 cycles:  138643659 heartbeat IPC: 0.28499 cumulative IPC: 0.35134 (Simulation time: 0 hr 11 min 50 sec) 
Heartbeat CPU  0 instructions:   98000002 cycles:  140449688 heartbeat IPC: 0.27863 cumulative IPC: 0.36733 (Simulation time: 0 hr 11 min 56 sec) 
Heartbeat CPU  1 instructions:   90000000 cycles:  140653016 heartbeat IPC: 0.36477 cumulative IPC: 0.33066 (Simulation time: 0 hr 11 min 56 sec) 
Heartbeat CPU  2 instructions:   95000001 cycles:  141139677 heartbeat IPC: 0.30149 cumulative IPC: 0.36093 (Simulation time: 0 hr 11 min 58 sec) 
Heartbeat CPU  3 instructions:   93000000 cycles:  141558203 heartbeat IPC: 0.34311 cumulative IPC: 0.35114 (Simulation time: 0 hr 11 min 59 sec) 
Heartbeat CPU  0 instructions:   99000001 cycles:  143247430 heartbeat IPC: 0.35743 cumulative IPC: 0.36710 (Simulation time: 0 hr 12 min 5 sec) 
Heartbeat CPU  2 instructions:   96000000 cycles:  143488388 heartbeat IPC: 0.42577 cumulative IPC: 0.36216 (Simulation time: 0 hr 12 min 5 sec) 
Heartbeat CPU  1 instructions:   91000001 cycles:  143848441 heartbeat IPC: 0.31295 cumulative IPC: 0.33020 (Simulation time: 0 hr 12 min 6 sec) 
*** Reached end of trace for Core: 0 Repeating trace: /data3/CASSANDRA/traces/cassandra_phase5_core0.trace.xz
Heartbeat CPU  0 instructions:  100000000 cycles:  145516409 heartbeat IPC: 0.44073 cumulative IPC: 0.36843 (Simulation time: 0 hr 12 min 12 sec) 
Heartbeat CPU  2 instructions:   97000003 cycles:  145749093 heartbeat IPC: 0.44234 cumulative IPC: 0.36360 (Simulation time: 0 hr 12 min 13 sec) 
Heartbeat CPU  3 instructions:   94000001 cycles:  146138080 heartbeat IPC: 0.21835 cumulative IPC: 0.34633 (Simulation time: 0 hr 12 min 14 sec) 
Heartbeat CPU  1 instructions:   92000000 cycles:  146930551 heartbeat IPC: 0.32445 cumulative IPC: 0.33006 (Simulation time: 0 hr 12 min 16 sec) 
Heartbeat CPU  2 instructions:   98000001 cycles:  148535396 heartbeat IPC: 0.35890 cumulative IPC: 0.36350 (Simulation time: 0 hr 12 min 21 sec) 
Heartbeat CPU  0 instructions:  101000000 cycles:  148677921 heartbeat IPC: 0.31630 cumulative IPC: 0.36715 (Simulation time: 0 hr 12 min 22 sec) 
Heartbeat CPU  3 instructions:   95000003 cycles:  149239730 heartbeat IPC: 0.32241 cumulative IPC: 0.34576 (Simulation time: 0 hr 12 min 24 sec) 
Heartbeat CPU  1 instructions:   93000002 cycles:  149248015 heartbeat IPC: 0.43151 cumulative IPC: 0.33188 (Simulation time: 0 hr 12 min 24 sec) 
Heartbeat CPU  0 instructions:  102000002 cycles:  150868765 heartbeat IPC: 0.45645 cumulative IPC: 0.36864 (Simulation time: 0 hr 12 min 29 sec) 
Heartbeat CPU  2 instructions:   99000002 cycles:  152072270 heartbeat IPC: 0.28274 cumulative IPC: 0.36134 (Simulation time: 0 hr 12 min 32 sec) 
Heartbeat CPU  3 instructions:   96000000 cycles:  152134860 heartbeat IPC: 0.34541 cumulative IPC: 0.34575 (Simulation time: 0 hr 12 min 32 sec) 
Heartbeat CPU  0 instructions:  103000001 cycles:  153459056 heartbeat IPC: 0.38606 cumulative IPC: 0.36898 (Simulation time: 0 hr 12 min 37 sec) 
Heartbeat CPU  1 instructions:   94000000 cycles:  153963503 heartbeat IPC: 0.21207 cumulative IPC: 0.32767 (Simulation time: 0 hr 12 min 38 sec) 
Heartbeat CPU  3 instructions:   97000001 cycles:  154593245 heartbeat IPC: 0.40677 cumulative IPC: 0.34686 (Simulation time: 0 hr 12 min 40 sec) 
*** Reached end of trace for Core: 2 Repeating trace: /data3/CASSANDRA/traces/cassandra_phase5_core2.trace.xz
Heartbeat CPU  2 instructions:  100000000 cycles:  155094254 heartbeat IPC: 0.33091 cumulative IPC: 0.36066 (Simulation time: 0 hr 12 min 42 sec) 
Heartbeat CPU  0 instructions:  104000000 cycles:  156160086 heartbeat IPC: 0.37023 cumulative IPC: 0.36901 (Simulation time: 0 hr 12 min 45 sec) 
Heartbeat CPU  3 instructions:   98000003 cycles:  157516555 heartbeat IPC: 0.34208 cumulative IPC: 0.34676 (Simulation time: 0 hr 12 min 49 sec) 
Heartbeat CPU  2 instructions:  101000000 cycles:  158160575 heartbeat IPC: 0.32612 cumulative IPC: 0.35990 (Simulation time: 0 hr 12 min 50 sec) 
Heartbeat CPU  0 instructions:  105000000 cycles:  158671244 heartbeat IPC: 0.39822 cumulative IPC: 0.36953 (Simulation time: 0 hr 12 min 52 sec) 
Heartbeat CPU  1 instructions:   95000000 cycles:  159926511 heartbeat IPC: 0.16770 cumulative IPC: 0.32087 (Simulation time: 0 hr 12 min 56 sec) 
Heartbeat CPU  3 instructions:   99000003 cycles:  160447275 heartbeat IPC: 0.34121 cumulative IPC: 0.34665 (Simulation time: 0 hr 12 min 57 sec) 
Heartbeat CPU  2 instructions:  102000002 cycles:  160706692 heartbeat IPC: 0.39276 cumulative IPC: 0.36049 (Simulation time: 0 hr 12 min 58 sec) 
Heartbeat CPU  0 instructions:  106000003 cycles:  161249155 heartbeat IPC: 0.38791 cumulative IPC: 0.36987 (Simulation time: 0 hr 13 min 0 sec) 
Heartbeat CPU  1 instructions:   96000000 cycles:  162924115 heartbeat IPC: 0.33360 cumulative IPC: 0.32114 (Simulation time: 0 hr 13 min 5 sec) 
*** Reached end of trace for Core: 3 Repeating trace: /data3/CASSANDRA/traces/cassandra_phase5_core3.trace.xz
Heartbeat CPU  3 instructions:  100000000 cycles:  163385622 heartbeat IPC: 0.34033 cumulative IPC: 0.34652 (Simulation time: 0 hr 13 min 6 sec) 
Heartbeat CPU  2 instructions:  103000002 cycles:  164054946 heartbeat IPC: 0.29866 cumulative IPC: 0.35906 (Simulation time: 0 hr 13 min 8 sec) 
Heartbeat CPU  0 instructions:  107000002 cycles:  164524080 heartbeat IPC: 0.30535 cumulative IPC: 0.36841 (Simulation time: 0 hr 13 min 9 sec) 
Heartbeat CPU  3 instructions:  101000001 cycles:  166615861 heartbeat IPC: 0.30957 cumulative IPC: 0.34571 (Simulation time: 0 hr 13 min 15 sec) 
Heartbeat CPU  2 instructions:  104000000 cycles:  166741882 heartbeat IPC: 0.37217 cumulative IPC: 0.35930 (Simulation time: 0 hr 13 min 15 sec) 
Heartbeat CPU  0 instructions:  108000000 cycles:  167277197 heartbeat IPC: 0.36322 cumulative IPC: 0.36831 (Simulation time: 0 hr 13 min 17 sec) 
Heartbeat CPU  1 instructions:   97000003 cycles:  168515913 heartbeat IPC: 0.17883 cumulative IPC: 0.31579 (Simulation time: 0 hr 13 min 20 sec) 
Heartbeat CPU  3 instructions:  102000000 cycles:  168915831 heartbeat IPC: 0.43479 cumulative IPC: 0.34708 (Simulation time: 0 hr 13 min 22 sec) 
Heartbeat CPU  2 instructions:  105000001 cycles:  169671356 heartbeat IPC: 0.34136 cumulative IPC: 0.35895 (Simulation time: 0 hr 13 min 24 sec) 
Heartbeat CPU  0 instructions:  109000001 cycles:  170603945 heartbeat IPC: 0.30059 cumulative IPC: 0.36682 (Simulation time: 0 hr 13 min 27 sec) 
Heartbeat CPU  1 instructions:   98000002 cycles:  171431432 heartbeat IPC: 0.34299 cumulative IPC: 0.31631 (Simulation time: 0 hr 13 min 30 sec) 
Heartbeat CPU  3 instructions:  103000002 cycles:  171927124 heartbeat IPC: 0.33208 cumulative IPC: 0.34678 (Simulation time: 0 hr 13 min 32 sec) 
Heartbeat CPU  2 instructions:  106000000 cycles:  172653902 heartbeat IPC: 0.33528 cumulative IPC: 0.35848 (Simulation time: 0 hr 13 min 34 sec) 
Heartbeat CPU  0 instructions:  110000001 cycles:  172772881 heartbeat IPC: 0.46106 cumulative IPC: 0.36815 (Simulation time: 0 hr 13 min 34 sec) 
Heartbeat CPU  1 instructions:   99000001 cycles:  174186074 heartbeat IPC: 0.36302 cumulative IPC: 0.31714 (Simulation time: 0 hr 13 min 39 sec) 
Heartbeat CPU  3 instructions:  104000000 cycles:  174771028 heartbeat IPC: 0.35163 cumulative IPC: 0.34687 (Simulation time: 0 hr 13 min 41 sec) 
Heartbeat CPU  2 instructions:  107000000 cycles:  175070685 heartbeat IPC: 0.41377 cumulative IPC: 0.35934 (Simulation time: 0 hr 13 min 42 sec) 
Heartbeat CPU  0 instructions:  111000002 cycles:  175964417 heartbeat IPC: 0.31333 cumulative IPC: 0.36703 (Simulation time: 0 hr 13 min 45 sec) 
*** Reached end of trace for Core: 1 Repeating trace: /data3/CASSANDRA/traces/cassandra_phase5_core1.trace.xz
Heartbeat CPU  1 instructions:  100000000 cycles:  176910820 heartbeat IPC: 0.36701 cumulative IPC: 0.31801 (Simulation time: 0 hr 13 min 48 sec) 
Heartbeat CPU  2 instructions:  108000000 cycles:  177885846 heartbeat IPC: 0.35522 cumulative IPC: 0.35927 (Simulation time: 0 hr 13 min 51 sec) 
Heartbeat CPU  3 instructions:  105000002 cycles:  178102886 heartbeat IPC: 0.30013 cumulative IPC: 0.34589 (Simulation time: 0 hr 13 min 52 sec) 
Heartbeat CPU  0 instructions:  112000000 cycles:  178480764 heartbeat IPC: 0.39740 cumulative IPC: 0.36752 (Simulation time: 0 hr 13 min 53 sec) 
Heartbeat CPU  1 instructions:  101000003 cycles:  179667319 heartbeat IPC: 0.36278 cumulative IPC: 0.31878 (Simulation time: 0 hr 13 min 57 sec) 
Heartbeat CPU  3 instructions:  106000002 cycles:  180833985 heartbeat IPC: 0.36615 cumulative IPC: 0.34623 (Simulation time: 0 hr 14 min 1 sec) 
Heartbeat CPU  2 instructions:  109000003 cycles:  180896139 heartbeat IPC: 0.33219 cumulative IPC: 0.35877 (Simulation time: 0 hr 14 min 1 sec) 
Heartbeat CPU  0 instructions:  113000001 cycles:  181288423 heartbeat IPC: 0.35617 cumulative IPC: 0.36732 (Simulation time: 0 hr 14 min 3 sec) 
Heartbeat CPU  1 instructions:  102000001 cycles:  181382945 heartbeat IPC: 0.58288 cumulative IPC: 0.32158 (Simulation time: 0 hr 14 min 3 sec) 
Heartbeat CPU  3 instructions:  107000003 cycles:  183470974 heartbeat IPC: 0.37922 cumulative IPC: 0.34676 (Simulation time: 0 hr 14 min 10 sec) 
Heartbeat CPU  2 instructions:  110000000 cycles:  184003592 heartbeat IPC: 0.32181 cumulative IPC: 0.35807 (Simulation time: 0 hr 14 min 12 sec) 
Heartbeat CPU  1 instructions:  103000002 cycles:  184114933 heartbeat IPC: 0.36603 cumulative IPC: 0.32232 (Simulation time: 0 hr 14 min 12 sec) 
Heartbeat CPU  0 instructions:  114000003 cycles:  184141076 heartbeat IPC: 0.35055 cumulative IPC: 0.36703 (Simulation time: 0 hr 14 min 12 sec) 
Heartbeat CPU  3 instructions:  108000000 cycles:  186312495 heartbeat IPC: 0.35192 cumulative IPC: 0.34685 (Simulation time: 0 hr 14 min 19 sec) 
Heartbeat CPU  2 instructions:  111000003 cycles:  186361822 heartbeat IPC: 0.42405 cumulative IPC: 0.35900 (Simulation time: 0 hr 14 min 20 sec) 
Heartbeat CPU  1 instructions:  104000000 cycles:  186751151 heartbeat IPC: 0.37933 cumulative IPC: 0.32322 (Simulation time: 0 hr 14 min 21 sec) 
Heartbeat CPU  0 instructions:  115000000 cycles:  186928896 heartbeat IPC: 0.35870 cumulative IPC: 0.36689 (Simulation time: 0 hr 14 min 21 sec) 
Heartbeat CPU  3 instructions:  109000003 cycles:  189189614 heartbeat IPC: 0.34757 cumulative IPC: 0.34686 (Simulation time: 0 hr 14 min 29 sec) 
Heartbeat CPU  2 instructions:  112000000 cycles:  189198758 heartbeat IPC: 0.35249 cumulative IPC: 0.35889 (Simulation time: 0 hr 14 min 29 sec) 
Heartbeat CPU  1 instructions:  105000002 cycles:  189421888 heartbeat IPC: 0.37443 cumulative IPC: 0.32403 (Simulation time: 0 hr 14 min 29 sec) 
Heartbeat CPU  0 instructions:  116000000 cycles:  189916163 heartbeat IPC: 0.33475 cumulative IPC: 0.36633 (Simulation time: 0 hr 14 min 31 sec) 
Heartbeat CPU  2 instructions:  113000000 cycles:  191929158 heartbeat IPC: 0.36625 cumulative IPC: 0.35901 (Simulation time: 0 hr 14 min 37 sec) 
Heartbeat CPU  1 instructions:  106000003 cycles:  192285332 heartbeat IPC: 0.34923 cumulative IPC: 0.32444 (Simulation time: 0 hr 14 min 38 sec) 
Heartbeat CPU  3 instructions:  110000000 cycles:  192288676 heartbeat IPC: 0.32268 cumulative IPC: 0.34643 (Simulation time: 0 hr 14 min 38 sec) 
Heartbeat CPU  0 instructions:  117000002 cycles:  192728431 heartbeat IPC: 0.35559 cumulative IPC: 0.36615 (Simulation time: 0 hr 14 min 40 sec) 
Heartbeat CPU  3 instructions:  111000001 cycles:  195074477 heartbeat IPC: 0.35896 cumulative IPC: 0.34663 (Simulation time: 0 hr 14 min 47 sec) 
Heartbeat CPU  0 instructions:  118000000 cycles:  195167954 heartbeat IPC: 0.40992 cumulative IPC: 0.36676 (Simulation time: 0 hr 14 min 47 sec) 
Heartbeat CPU  1 instructions:  107000001 cycles:  195375408 heartbeat IPC: 0.32362 cumulative IPC: 0.32443 (Simulation time: 0 hr 14 min 48 sec) 
Heartbeat CPU  2 instructions:  114000000 cycles:  196095597 heartbeat IPC: 0.24001 cumulative IPC: 0.35620 (Simulation time: 0 hr 14 min 51 sec) 
Heartbeat CPU  0 instructions:  119000000 cycles:  197927772 heartbeat IPC: 0.36234 cumulative IPC: 0.36669 (Simulation time: 0 hr 14 min 56 sec) 
Heartbeat CPU  3 instructions:  112000000 cycles:  198281364 heartbeat IPC: 0.31183 cumulative IPC: 0.34600 (Simulation time: 0 hr 14 min 57 sec) 
Heartbeat CPU  1 instructions:  108000000 cycles:  198413161 heartbeat IPC: 0.32919 cumulative IPC: 0.32451 (Simulation time: 0 hr 14 min 58 sec) 
Heartbeat CPU  2 instructions:  115000002 cycles:  198959435 heartbeat IPC: 0.34918 cumulative IPC: 0.35609 (Simulation time: 0 hr 14 min 59 sec) 
Heartbeat CPU  0 instructions:  120000000 cycles:  200968777 heartbeat IPC: 0.32884 cumulative IPC: 0.36606 (Simulation time: 0 hr 15 min 5 sec) 
Heartbeat CPU  3 instructions:  113000000 cycles:  201064043 heartbeat IPC: 0.35937 cumulative IPC: 0.34621 (Simulation time: 0 hr 15 min 6 sec) 
Heartbeat CPU  2 instructions:  116000000 cycles:  201384647 heartbeat IPC: 0.41233 cumulative IPC: 0.35684 (Simulation time: 0 hr 15 min 7 sec) 
Heartbeat CPU  1 instructions:  109000003 cycles:  202259288 heartbeat IPC: 0.26000 cumulative IPC: 0.32315 (Simulation time: 0 hr 15 min 10 sec) 
Heartbeat CPU  0 instructions:  121000002 cycles:  203215851 heartbeat IPC: 0.44502 cumulative IPC: 0.36702 (Simulation time: 0 hr 15 min 13 sec) 
Heartbeat CPU  3 instructions:  114000002 cycles:  204060565 heartbeat IPC: 0.33372 cumulative IPC: 0.34600 (Simulation time: 0 hr 15 min 15 sec) 
Heartbeat CPU  2 instructions:  117000000 cycles:  204156082 heartbeat IPC: 0.36082 cumulative IPC: 0.35690 (Simulation time: 0 hr 15 min 16 sec) 
Heartbeat CPU  1 instructions:  110000001 cycles:  205867853 heartbeat IPC: 0.27712 cumulative IPC: 0.32226 (Simulation time: 0 hr 15 min 21 sec) 
Heartbeat CPU  3 instructions:  115000001 cycles:  206291944 heartbeat IPC: 0.44815 cumulative IPC: 0.34723 (Simulation time: 0 hr 15 min 22 sec) 
Heartbeat CPU  0 instructions:  122000000 cycles:  206314713 heartbeat IPC: 0.32270 cumulative IPC: 0.36629 (Simulation time: 0 hr 15 min 22 sec) 
Heartbeat CPU  2 instructions:  118000000 cycles:  207948665 heartbeat IPC: 0.26367 cumulative IPC: 0.35502 (Simulation time: 0 hr 15 min 26 sec) 
Heartbeat CPU  3 instructions:  116000000 cycles:  209325624 heartbeat IPC: 0.32963 cumulative IPC: 0.34694 (Simulation time: 0 hr 15 min 31 sec) 
Heartbeat CPU  0 instructions:  123000000 cycles:  209483213 heartbeat IPC: 0.31561 cumulative IPC: 0.36544 (Simulation time: 0 hr 15 min 31 sec) 
Heartbeat CPU  1 instructions:  111000002 cycles:  209993036 heartbeat IPC: 0.24241 cumulative IPC: 0.32053 (Simulation time: 0 hr 15 min 33 sec) 
Heartbeat CPU  2 instructions:  119000000 cycles:  211190058 heartbeat IPC: 0.30851 cumulative IPC: 0.35423 (Simulation time: 0 hr 15 min 37 sec) 
Heartbeat CPU  1 instructions:  112000000 cycles:  211661155 heartbeat IPC: 0.59948 cumulative IPC: 0.32295 (Simulation time: 0 hr 15 min 39 sec) 
Heartbeat CPU  0 instructions:  124000000 cycles:  211681851 heartbeat IPC: 0.45483 cumulative IPC: 0.36646 (Simulation time: 0 hr 15 min 39 sec) 
Heartbeat CPU  3 instructions:  117000003 cycles:  212066400 heartbeat IPC: 0.36486 cumulative IPC: 0.34720 (Simulation time: 0 hr 15 min 40 sec) 
Heartbeat CPU  1 instructions:  113000001 cycles:  214417229 heartbeat IPC: 0.36284 cumulative IPC: 0.32352 (Simulation time: 0 hr 15 min 47 sec) 
Heartbeat CPU  0 instructions:  125000001 cycles:  214431705 heartbeat IPC: 0.36366 cumulative IPC: 0.36642 (Simulation time: 0 hr 15 min 47 sec) 
Heartbeat CPU  2 instructions:  120000000 cycles:  214577190 heartbeat IPC: 0.29524 cumulative IPC: 0.35321 (Simulation time: 0 hr 15 min 48 sec) 
Heartbeat CPU  3 instructions:  118000002 cycles:  215285779 heartbeat IPC: 0.31062 cumulative IPC: 0.34660 (Simulation time: 0 hr 15 min 50 sec) 
Heartbeat CPU  2 instructions:  121000000 cycles:  216821101 heartbeat IPC: 0.44565 cumulative IPC: 0.35426 (Simulation time: 0 hr 15 min 55 sec) 
Heartbeat CPU  0 instructions:  126000001 cycles:  217626208 heartbeat IPC: 0.31304 cumulative IPC: 0.36556 (Simulation time: 0 hr 15 min 57 sec) 
Heartbeat CPU  1 instructions:  114000001 cycles:  218118480 heartbeat IPC: 0.27018 cumulative IPC: 0.32252 (Simulation time: 0 hr 15 min 59 sec) 
Heartbeat CPU  3 instructions:  119000000 cycles:  218266773 heartbeat IPC: 0.33546 cumulative IPC: 0.34643 (Simulation time: 0 hr 15 min 59 sec) 
Heartbeat CPU  2 instructions:  122000000 cycles:  219567872 heartbeat IPC: 0.36406 cumulative IPC: 0.35439 (Simulation time: 0 hr 16 min 3 sec) 
Heartbeat CPU  0 instructions:  127000001 cycles:  220101288 heartbeat IPC: 0.40403 cumulative IPC: 0.36604 (Simulation time: 0 hr 16 min 5 sec) 
Heartbeat CPU  3 instructions:  120000000 cycles:  220989308 heartbeat IPC: 0.36730 cumulative IPC: 0.34671 (Simulation time: 0 hr 16 min 8 sec) 
Heartbeat CPU  1 instructions:  115000003 cycles:  221489685 heartbeat IPC: 0.29663 cumulative IPC: 0.32209 (Simulation time: 0 hr 16 min 9 sec) 
Heartbeat CPU  2 instructions:  123000002 cycles:  222361822 heartbeat IPC: 0.35792 cumulative IPC: 0.35444 (Simulation time: 0 hr 16 min 12 sec) 
Heartbeat CPU  0 instructions:  128000000 cycles:  222877743 heartbeat IPC: 0.36017 cumulative IPC: 0.36596 (Simulation time: 0 hr 16 min 14 sec) 
Heartbeat CPU  3 instructions:  121000002 cycles:  223957737 heartbeat IPC: 0.33688 cumulative IPC: 0.34657 (Simulation time: 0 hr 16 min 17 sec) 
Heartbeat CPU  1 instructions:  116000000 cycles:  224456568 heartbeat IPC: 0.33705 cumulative IPC: 0.32231 (Simulation time: 0 hr 16 min 19 sec) 
Heartbeat CPU  2 instructions:  124000000 cycles:  225411359 heartbeat IPC: 0.32792 cumulative IPC: 0.35405 (Simulation time: 0 hr 16 min 22 sec) 
Heartbeat CPU  0 instructions:  129000000 cycles:  225508637 heartbeat IPC: 0.38010 cumulative IPC: 0.36614 (Simulation time: 0 hr 16 min 23 sec) 
Heartbeat CPU  3 instructions:  122000003 cycles:  226645062 heartbeat IPC: 0.37212 cumulative IPC: 0.34690 (Simulation time: 0 hr 16 min 26 sec) 
Heartbeat CPU  1 instructions:  117000002 cycles:  227303824 heartbeat IPC: 0.35122 cumulative IPC: 0.32270 (Simulation time: 0 hr 16 min 29 sec) 
Heartbeat CPU  2 instructions:  125000002 cycles:  227465647 heartbeat IPC: 0.48679 cumulative IPC: 0.35536 (Simulation time: 0 hr 16 min 29 sec) 
Heartbeat CPU  0 instructions:  130000000 cycles:  228886538 heartbeat IPC: 0.29604 cumulative IPC: 0.36501 (Simulation time: 0 hr 16 min 34 sec) 
Heartbeat CPU  3 instructions:  123000003 cycles:  229977107 heartbeat IPC: 0.30012 cumulative IPC: 0.34616 (Simulation time: 0 hr 16 min 37 sec) 
Heartbeat CPU  2 instructions:  126000000 cycles:  230018401 heartbeat IPC: 0.39173 cumulative IPC: 0.35580 (Simulation time: 0 hr 16 min 38 sec) 
Heartbeat CPU  1 instructions:  118000003 cycles:  230465351 heartbeat IPC: 0.31630 cumulative IPC: 0.32261 (Simulation time: 0 hr 16 min 39 sec) 
Heartbeat CPU  0 instructions:  131000003 cycles:  231104857 heartbeat IPC: 0.45079 cumulative IPC: 0.36591 (Simulation time: 0 hr 16 min 41 sec) 
Heartbeat CPU  2 instructions:  127000002 cycles:  232540432 heartbeat IPC: 0.39651 cumulative IPC: 0.35628 (Simulation time: 0 hr 16 min 45 sec) 
Heartbeat CPU  1 instructions:  119000002 cycles:  233322005 heartbeat IPC: 0.35006 cumulative IPC: 0.32297 (Simulation time: 0 hr 16 min 47 sec) 
Heartbeat CPU  0 instructions:  132000000 cycles:  233843581 heartbeat IPC: 0.36513 cumulative IPC: 0.36590 (Simulation time: 0 hr 16 min 49 sec) 
Heartbeat CPU  3 instructions:  124000000 cycles:  234422581 heartbeat IPC: 0.22495 cumulative IPC: 0.34365 (Simulation time: 0 hr 16 min 50 sec) 
Heartbeat CPU  2 instructions:  128000000 cycles:  235176385 heartbeat IPC: 0.37937 cumulative IPC: 0.35657 (Simulation time: 0 hr 16 min 53 sec) 
Heartbeat CPU  1 instructions:  120000000 cycles:  236238301 heartbeat IPC: 0.34290 cumulative IPC: 0.32324 (Simulation time: 0 hr 16 min 56 sec) 
Heartbeat CPU  0 instructions:  133000000 cycles:  236668760 heartbeat IPC: 0.35396 cumulative IPC: 0.36574 (Simulation time: 0 hr 16 min 58 sec) 
Heartbeat CPU  3 instructions:  125000003 cycles:  237452915 heartbeat IPC: 0.33000 cumulative IPC: 0.34346 (Simulation time: 0 hr 17 min 0 sec) 
Heartbeat CPU  2 instructions:  129000002 cycles:  237708803 heartbeat IPC: 0.39488 cumulative IPC: 0.35701 (Simulation time: 0 hr 17 min 1 sec) 
Heartbeat CPU  0 instructions:  134000002 cycles:  239545611 heartbeat IPC: 0.34760 cumulative IPC: 0.36550 (Simulation time: 0 hr 17 min 7 sec) 
Heartbeat CPU  1 instructions:  121000002 cycles:  239764398 heartbeat IPC: 0.28360 cumulative IPC: 0.32261 (Simulation time: 0 hr 17 min 8 sec) 
Heartbeat CPU  2 instructions:  130000000 cycles:  239942458 heartbeat IPC: 0.44770 cumulative IPC: 0.35793 (Simulation time: 0 hr 17 min 8 sec) 
Heartbeat CPU  3 instructions:  126000001 cycles:  240521175 heartbeat IPC: 0.32592 cumulative IPC: 0.34322 (Simulation time: 0 hr 17 min 10 sec) 
Heartbeat CPU  2 instructions:  131000001 cycles:  242568081 heartbeat IPC: 0.38086 cumulative IPC: 0.35820 (Simulation time: 0 hr 17 min 17 sec) 
Heartbeat CPU  0 instructions:  135000000 cycles:  242588678 heartbeat IPC: 0.32862 cumulative IPC: 0.36500 (Simulation time: 0 hr 17 min 17 sec) 
Heartbeat CPU  1 instructions:  122000001 cycles:  242746301 heartbeat IPC: 0.33536 cumulative IPC: 0.32278 (Simulation time: 0 hr 17 min 17 sec) 
Heartbeat CPU  3 instructions:  127000001 cycles:  243012104 heartbeat IPC: 0.40146 cumulative IPC: 0.34387 (Simulation time: 0 hr 17 min 18 sec) 
Heartbeat CPU  1 instructions:  123000000 cycles:  245122623 heartbeat IPC: 0.42082 cumulative IPC: 0.32381 (Simulation time: 0 hr 17 min 25 sec) 
Heartbeat CPU  0 instructions:  136000000 cycles:  245726554 heartbeat IPC: 0.31869 cumulative IPC: 0.36436 (Simulation time: 0 hr 17 min 27 sec) 
Heartbeat CPU  2 instructions:  132000000 cycles:  245816568 heartbeat IPC: 0.30784 cumulative IPC: 0.35748 (Simulation time: 0 hr 17 min 27 sec) 
Heartbeat CPU  3 instructions:  128000000 cycles:  246590502 heartbeat IPC: 0.27945 cumulative IPC: 0.34285 (Simulation time: 0 hr 17 min 29 sec) 
Heartbeat CPU  2 instructions:  133000000 cycles:  248160276 heartbeat IPC: 0.42667 cumulative IPC: 0.35819 (Simulation time: 0 hr 17 min 34 sec) 
Heartbeat CPU  1 instructions:  124000000 cycles:  248485084 heartbeat IPC: 0.29740 cumulative IPC: 0.32342 (Simulation time: 0 hr 17 min 35 sec) 
[...]
IIIIIIIIIIAIA4A44444444444A4A44I4I4I4I4444A4A4A4A4A4A4A4A4A4A444
IIIIIIIIIIAIA4A44444444444A4A44IA44I444444A4A4A4A4A4A4A4A4A4A444
IIIIIIIIIIAIA4A44444444444A4A44IA4A4444444A4A4A4A4A4A4A4A4A4A444
IIIIIIIIIIAIA4A44444444444A4I44IA4A4444444A4A4A4A4A4A4A4A4A4A444
IIIIIIIIIIAIA4A44444444444A4I44IA4A4A44444A4A4A4A4A4A4A4A4A4A444
IIIIIIIIIIAIA4A44444444444A4I44IA4A4A44444A4A4A4I4A4A4A4A4A4A444
[MLOP] Prefetch Degree Mean: 9.68935
[MLOP] Prefetch Degree SD: 4.65030
[MLOP] Max Score Left Mean (%): 31.74602
[MLOP] Max Score Left SD (%): 21.10330
[MLOP] Max Score Right Mean (%): 75.51017
[MLOP] Max Score Right SD (%): 11.85358

[MLOP] History of tracked zone:
IIIIIIIIIIIIIIIIIIIIIIIIIIIIIIIIIIIIIIIIIIIIIIIIIIIIIIIIIIIIIIII
IIIIIIIIIIIIIIIIIIIIIIIIIIIIIAIIIIIIIIIIIIIIIIIIIIIIIIIIIIIIIIII
IIIIIIIIIIIIIIIIIIIIIIIIIIIIIAAIIIIIIIIIIIIIIIIIIIIIIIIIIIIIIIII
IIIIIIIIIIIIIIIIIIIIIIIIIIIIIA2222444444444444IIIIIIIIIIIIIIIIII
IIIIIIIIIIIIIIIIIIIIIIIIIIIIIAA2222444444444444IIIIIIIIIIIIIIIII
IIIIIIIIIIIIIIIIIIIIIIIIIIIIIIA2222444444444444IIIIIIIIIIIIIIIII
IIIIIIIIIIIIIIIIIIIIIIIIIIIIIA4444IIIIIIIIIIIIIIIIIIIIIIIIIIIIII
IIIIIIIIIIIIIIIIIIIIIIIIIIIIIAA4444IIIIIIIIIIIIIIIIIIIIIIIIIIIII
IIIIIIIIIIIIIIIIIIIIIIIIIIIIIA4II4III4I44IIII44IIIIIIIIIIIIIIIII
IIIIIIIIIIIIIIIIIIIIIIIIIIIIIAA4I44II44444III444IIIIIIIIIIIIIIII
IIIIIIIIIIIIIIIIIIIIIIIIIIIIIIA4I44II44444III444IIIIIIIIIIIIIIII
IIIIIIIIIIIIIIIIIIIIIIIIIIIIIA44I4I4I44444II444IIIIIIIIIIIIIIIII
IIIIIIIIIIIIIIIIIIIIIIIIIIIIIAA444444444444I4444IIIIIIIIIIIIIIII
IIIIIIIIIIIIIIIIIIIIIIIIIIIIIA4II44444II44444I44IIIIIIIIIIIIIIII
IIIIIIIIIIIIIIIIIIIIIIIIIIIIIAA4I444444I444444444IIIIIIIIIIIIIII
IIIIIIIIIIIIIIIIIIIIIIIIIIIIIAI4I444444I444444444IIIIIIIIIIIIIII
IIIIIIIIIIIIIIIIIIIIIIIIIIIIIII4I444444I444444444IIIIIIIIIIIIIII
IIIIIIIIIIIIIIIIIIIIIIIIIIIIIA4II4I44444I44II44IIIIIIIIIIIIIIIII
IIIIIIIIIIIIIIIIIIIIIIIIIIIIIAA4I44444444444I444IIIIIIIIIIIIIIII
IIIIIIIIIIIIIIIIIIIIIIIIIIIIIA2II4I4I44I444I4444IIIIIIIIIIIIIIII
IIIIIIIIIIIIIIIIIIIIIIIIIIIIIAA2I4444444444444444IIIIIIIIIIIIIII
IIIIIIIIIIIIIIIIIIIIIIIIIIIIIA4II444III4I44II4IIIIIIIIIIIIIIIIII
IIIIIIIIIIIIIIIIIIIIIIIIIIIIIAA4I4444II44444I44IIIIIIIIIIIIIIIII
IIIIIIIIIIIIIIIIIIIIIIIIIIIIIAI4I4444II44444I44IIIIIIIIIIIIIIIII
IIIIIIIIIIIIIIIIIIIIIIIIIIIIIA2II4III4444444I44IIIIIIIIIIIIIIIII
IIIIIIIIIIIIIIIIIIIIIIIIIIIIIAA2I44II44444444444IIIIIIIIIIIIIIII
IIIIIIIIIIIIIIIIIIIIIIIIIIIIIAI2I44II44444444444IIIIIIIIIIIIIIII
IIIIIIIIIIIIIIIIIIIIIIIIIIIIIA44I44IIIIIIIIIIIIIIIIIIIIIIIIIIIII
IIIIIIIIIIIIIIIIIIIIIIIIIIIIIAA44444IIIIIIIIIIIIIIIIIIIIIIIIIIII
IIIIIIIIIIIIIIIIIIIIIIIIIIIIIA4II4I4I4I4I4III444IIIIIIIIIIIIIIII
IIIIIIIIIIIIIIIIIIIIIIIIIIIIIAA4I4444444444II4444IIIIIIIIIIIIIII
IIIIIIIIIIIIIIIIIIIIIIIIIIIIIIA4I4444444444II4444IIIIIIIIIIIIIII
IIIIIIIIIIIIIIIIIIIIIIIIIIIIIA4444I44444444IIII4IIIIIIIIIIIIIIII
IIIIIIIIIIIIIIIIIIIIIIIIIIIIIAA4444444444444III44IIIIIIIIIIIIIII
IIIIIIIIIIIIIIIIIIIIIIIIIIIIIA4444444444444444IIIIIIIIIIIIIIIIII
IIIIIIIIIIIIIIIIIIIIIIIIIIIIIAA4444444444444444IIIIIIIIIIIIIIIII
IIIIIIIIIIIIIIIIIIIIIIIIIIIIIA4444IIIIIIIIIIIIIIIIIIIIIIIIIIIIII
IIIIIIIIIIIIIIIIIIIIIIIIIIIIIAA4444IIIIIIIIIIIIIIIIIIIIIIIIIIIII
IIIIIIIIIIIIIIIIIIIIIIIIIIIIIA4444I4I4I4444II4IIIIIIIIIIIIIIIIII
IIIIIIIIIIIIIIIIIIIIIIIIIIIIIAA4444444444444I44IIIIIIIIIIIIIIIII
IIIIIIIIIIIIIIIIIIIIIIIIIIIIIIA4444444444444I44IIIIIIIIIIIIIIIII
IIIIIIIIIIIIIIIIIIIIIIIIIIIIIA4II4I4I444I4II4444IIIIIIIIIIIIIIII
IIIIIIIIIIIIIIIIIIIIIIIIIIIIIAA4I4444444444I44444IIIIIIIIIIIIIII
IIIIIIIIIIIIIIIIIIIIIIIIIIIIIA4II44444444444I444IIIIIIIIIIIIIIII
IIIIIIIIIIIIIIIIIIIIIIIIIIIIIAA4I4444444444444444IIIIIIIIIIIIIII
IIIIIIIIIIIIIIIIIIIIIIIIIIIIIAI4I4444444444444444IIIIIIIIIIIIIII
IIIIIIIIIIIIIIIIIIIIIIIIIIIIIA4II44II444I4III444IIIIIIIIIIIIIIII
IIIIIIIIIIIIIIIIIIIIIIIIIIIIIAA4I444I444444II4444IIIIIIIIIIIIIII
IIIIIIIIIIIIIIIIIIIIIIIIIIIIIA4II4I4I44II4I44444IIIIIIIIIIIIIIII
IIIIIIIIIIIIIIIIIIIIIIIIIIIIIAA4I4444444I44444444IIIIIIIIIIIIIII
IIIIIIIIIIIIIIIIIIIIIIIIIIIIIA2II4II4444I444I4IIIIIIIIIIIIIIIIII
IIIIIIIIIIIIIIIIIIIIIIIIIIIIIAA2I44I44444444444IIIIIIIIIIIIIIIII
IIIIIIIIIIIIIIIIIIIIIIIIIIIIIA2II4III4444444I44IIIIIIIIIIIIIIIII
IIIIIIIIIIIIIIIIIIIIIIIIIIIIIAA2I44II44444444444IIIIIIIIIIIIIIII
IIIIIIIIIIIIIIIIIIIIIIIIIIIIIA44I4IIIIIIIIIIIIIIIIIIIIIIIIIIIIII
IIIIIIIIIIIIIIIIIIIIIIIIIIIIIAA4444IIIIIIIIIIIIIIIIIIIIIIIIIIIII
IIIIIIIIIIIIIIIIIIIIIIIIIIIIIA4II4I4I4I4I4IIII44IIIIIIIIIIIIIIII
IIIIIIIIIIIIIIIIIIIIIIIIIIIIIAA4I4444444444III444IIIIIIIIIIIIIII
IIIIIIIIIIIIIIIIIIIIIIIIIIIIIIA4I4444444444III444IIIIIIIIIIIIIII
IIIIIIIIIIIIIIIIIIIIIIIIIIIIIA4444I44444444IIII444IIIIIIIIIIIIII
IIIIIIIIIIIIIIIIIIIIIIIIIIIIIAA4444444444444III4444IIIIIIIIIIIII
IIIIIIIIIIIIIIIIIIIIIIIIIIIIIA44444I4I44444444IIIIIIIIIIIIIIIIII
IIIIIIIIIIIIIIIIIIIIIIIIIIIIIAA4444444444444444IIIIIIIIIIIIIIIII
[MLOP] Prefetch Degree Mean: 9.79142
[MLOP] Prefetch Degree SD: 4.71509
[MLOP] Max Score Left Mean (%): 32.09864
[MLOP] Max Score Left SD (%): 20.90901
[MLOP] Max Score Right Mean (%): 74.70053
[MLOP] Max Score Right SD (%): 12.16699

[MLOP] History of tracked zone:
IIIIIIIIIIIIIIIIIIIIIIIIIIIIIIIIIIIIIIIIIIIIIIIIIIIIIIIIIIIIIIII
AIIIIIIIIIIIIIIIIIIIIIIIIIIIIIIIIIIIIIIIIIIIIIIIIIIIIIIIIIIIIIII
AAIIIIIIIIIIIIIIIIIIIIIIIIIIIIIIIIIIIIIIIIIIIIIIIIIIIIIIIIIIIIII
AAAIIIIIIIIIIIIIIIIIIIIIIIIIIIIIIIIIIIIIIIIIIIIIIIIIIIIIIIIIIIII
AAAAIIIIIIIIIIIIIIIIIIIIIIIIIIIIIIIIIIIIIIIIIIIIIIIIIIIIIIIIIIII
AAAAIAIIIIIIIIIIIIIIIIIIIIIIIIIIIIIIIIIIIIIIIIIIIIIIIIIIIIIIIIII
AAAAIAAIIIIIIIIIIIIIIIIIIIIIIIIIIIIIIIIIIIIIIIIIIIIIIIIIIIIIIIII
AAAAAAAIIIIIIIIIIIIIIIIIIIIIIIIIIIIIIIIIIIIIIIIIIIIIIIIIIIIIIIII
AAAAAAAAIIIIIIIIIIIIIIIIIIIIIIIIIIIIIIIIIIIIIIIIIIIIIIIIIIIIIIII
AAAAAAAAAIIIIIIIIIIIIIIIIIIIIIIIIIIIIIIIIIIIIIIIIIIIIIIIIIIIIIII
AAAAAAAAAAIIIIIIIIIIIIIIIIIIIIIIIIIIIIIIIIIIIIIIIIIIIIIIIIIIIIII
AAAAAAAAAAAIIIIIIIIIIIIIIIIIIIIIIIIIIIIIIIIIIIIIIIIIIIIIIIIIIIII
AAAAAAAAAAAAIIIIIIIIIIIIIIIIIIIIIIIIIIIIIIIIIIIIIIIIIIIIIIIIIIII
AAAAAAAAAAAAAIIIIIIIIIIIIIIIIIIIIIIIIIIIIIIIIIIIIIIIIIIIIIIIIIII
AAAAAAAAAAAAAAIIIIIIIIIIIIIIIIIIIIIIIIIIIIIIIIIIIIIIIIIIIIIIIIII
AAAAAAAAAAAAAAAIIIIIIIIIIIIIIIIIIIIIIIIIIIIIIIIIIIIIIIIIIIIIIIII
AAAAAAAAAAAAAAAAIIIIIIIIIIIIIIIIIIIIIIIIIIIIIIIIIIIIIIIIIIIIIIII
AAAAAAAAAAAAAAAAAIIIIIIIIIIIIIIIIIIIIIIIIIIIIIIIIIIIIIIIIIIIIIII
AAAAAAAAAAAAAAAAAAIIIIIIIIIIIIIIIIIIIIIIIIIIIIIIIIIIIIIIIIIIIIII
AAAAAAAAAAAAAAAAAAAIIIIIIIIIIIIIIIIIIIIIIIIIIIIIIIIIIIIIIIIIIIII
AAAAAAAAAAAAAAAAAAAAIIIIIIIIIIIIIIIIIIIIIIIIIIIIIIIIIIIIIIIIIIII
AAAAAAAAAAAAAAAAAAAAAIIIIIIIIIIIIIIIIIIIIIIIIIIIIIIIIIIIIIIIIIII
AAAAAAAAAAAAAAAAAAAAAAIIIIIIIIIIIIIIIIIIIIIIIIIIIIIIIIIIIIIIIIII
AAAAAAAAAAAAAAAAAAAAAAAIIIIIIIIIIIIIIIIIIIIIIIIIIIIIIIIIIIIIIIII
AAAAAAAAAAAAAAAAAAAAAAAAIIIIIIIIIIIIIIIIIIIIIIIIIIIIIIIIIIIIIIII
AAAAAAAAAAAAAAAAAAAAAAAAAIIIIIIIIIIIIIIIIIIIIIIIIIIIIIIIIIIIIIII
AAAAAAAAAAAAAAAAAAAAAAAAAAIIIIIIIIIIIIIIIIIIIIIIIIIIIIIIIIIIIIII
AAAAAAAAAAAAAAAAAAAAAAAAAAAIIIIIIIIIIIIIIIIIIIIIIIIIIIIIIIIIIIII
AAAAAAAAAAAAAAAAAAAAAAAAAAAAIIIIIIIIIIIIIIIIIIIIIIIIIIIIIIIIIIII
AAAAAAAAAAAAAAAAAAAAAAAAAAAAAIIIIIIIIIIIIIIIIIIIIIIIIIIIIIIIIIII
AAAAAAAAAAAAAAAAAAAAAAAAAAAAAAIIIIIIIIIIIIIIIIIIIIIIIIIIIIIIIIII
AAAAAAAAAAAAAAAAAAAAAAAAAAAAAAAIIIIIIIIIIIIIIIIIIIIIIIIIIIIIIIII
AAAAAAAAAAAAAAAAAAAAAAAAAAAAAAAIAIIIIIIIIIIIIIIIIIIIIIIIIIIIIIII
AAAAAAAAAAAAAAAAAAAAAAAAAAAAAAAIAAIIIIIIIIIIIIIIIIIIIIIIIIIIIIII
AAAAAAAAAAAAAAAAAAAAAAAAAAAAAAAAAAIIIIIIIIIIIIIIIIIIIIIIIIIIIIII
AAAAAAAAAAAAAAAAAAAAAAAAAAAAAAAAAAAIIIIIIIIIIIIIIIIIIIIIIIIIIIII
AAAAAAAAAAAAAAAAAAAAAAAAAAAAAAAAAAAAIIIIIIIIIIIIIIIIIIIIIIIIIIII
AAAAAAAAAAAAAAAAAAAAAAAAAAAAAAAAAAAAAIIIIIIIIIIIIIIIIIIIIIIIIIII
AAAAAAAAAAAAAAAAAAAAAAAAAAAAAAAAAAAAAAIIIIIIIIIIIIIIIIIIIIIIIIII
AAAAAAAAAAAAAAAAAAAAAAAAAAAAAAAAAAAAAAAIIIIIIIIIIIIIIIIIIIIIIIII
AAAAAAAAAAAAAAAAAAAAAAAAAAAAAAAAAAAAAAAAIIIIIIIIIIIIIIIIIIIIIIII
AAAAAAAAAAAAAAAAAAAAAAAAAAAAAAAAAAAAAAAAIAIIIIIIIIIIIIIIIIIIIIII
AAAAAAAAAAAAAAAAAAAAAAAAAAAAAAAAAAAAAAAAIAAIIIIIIIIIIIIIIIIIIIII
AAAAAAAAAAAAAAAAAAAAAAAAAAAAAAAAAAAAAAAAAAAIIIIIIIIIIIIIIIIIIIII
AAAAAAAAAAAAAAAAAAAAAAAAAAAAAAAAAAAAAAAAAAAAIIIIIIIIIIIIIIIIIIII
AAAAAAAAAAAAAAAAAAAAAAAAAAAAAAAAAAAAAAAAAAAAAIIIIIIIIIIIIIIIIIII
AAAAAAAAAAAAAAAAAAAAAAAAAAAAAAAAAAAAAAAAAAAAAAIIIIIIIIIIIIIIIIII
AAAAAAAAAAAAAAAAAAAAAAAAAAAAAAAAAAAAAAAAAAAAAAAIIIIIIIIIIIIIIIII
AAAAAAAAAAAAAAAAAAAAAAAAAAAAAAAAAAAAAAAAAAAAAAAAIIIIIIIIIIIIIIII
AAAAAAAAAAAAAAAAAAAAAAAAAAAAAAAAAAAAAAAAAAAAAAAAAIIIIIIIIIIIIIII
AAAAAAAAAAAAAAAAAAAAAAAAAAAAAAAAAAAAAAAAAAAAAAAAAIAIIIIIIIIIIIII
AAAAAAAAAAAAAAAAAAAAAAAAAAAAAAAAAAAAAAAAAAAAAAAAAIAAIIIIIIIIIIII
AAAAAAAAAAAAAAAAAAAAAAAAAAAAAAAAAAAAAAAAAAAAAAAAAAAAIIIIIIIIIIII
AAAAAAAAAAAAAAAAAAAAAAAAAAAAAAAAAAAAAAAAAAAAAAAAAAAAAIIIIIIIIIII
AAAAAAAAAAAAAAAAAAAAAAAAAAAAAAAAAAAAAAAAAAAAAAAAAAAAAAIIIIIIIIII
AAAAAAAAAAAAAAAAAAAAAAAAAAAAAAAAAAAAAAAAAAAAAAAAAAAAAAAIIIIIIIII
AAAAAAAAAAAAAAAAAAAAAAAAAAAAAAAAAAAAAAAAAAAAAAAAAAAAAAAAIIIIIIII
AAAAAAAAAAAAAAAAAAAAAAAAAAAAAAAAAAAAAAAAAAAAAAAAAAAAAAAAAIIIIIII
AAAAAAAAAAAAAAAAAAAAAAAAAAAAAAAAAAAAAAAAAAAAAAAAAAAAAAAAAAIIIIII
AAAAAAAAAAAAAAAAAAAAAAAAAAAAAAAAAAAAAAAAAAAAAAAAAAAAAAAAAAAIIIII
AAAAAAAAAAAAAAAAAAAAAAAAAAAAAAAAAAAAAAAAAAAAAAAAAAAAAAAAAAAAIIII
AAAAAAAAAAAAAAAAAAAAAAAAAAAAAAAAAAAAAAAAAAAAAAAAAAAAAAAAAAAAAIII
AAAAAAAAAAAAAAAAAAAAAAAAAAAAAAAAAAAAAAAAAAAAAAAAAAAAAAAAAAAAAAII
AAAAAAAAAAAAAAAAAAAAAAAAAAAAAAAAAAAAAAAAAAAAAAAAAAAAAAAAAAAAAAAI
AAAAAAAAAAAAAAAAAAAAAAAAAAAAAAAAAAAAAAAAAAAAAAAAAAAAAAAAAAAAAAAA
AAAAAAAAAAAAIAAAAAAAAAAAAAAAAAAAAAAAAAAAAAAAAAAAAAAAAAAAAAAAAAAA
AAAAAAAAAAAAIAAAAAAAAAAAAAAAAAAAIAAAAAAAAAAAAAAAAAAAAAAAAAAAAAAA
AAAAAAAAAAAAIAAIAAAAAAAAAAAAAAAAIAAAAAAAAAAAAAAAAAAAAAAAAAAAAAAA
AAAAAAAAAAAAIAIIAAAAAAAAAAAAAAAAIAAAAAAAAAAAAAAAAAAAAAAAAAAAAAAA
A2II4I4III4I4I4I44IIIIIIIIIIIIIIIIIIIIIIIIIIIIIIIIIIIIIIIIIIIIII
AA2I4444II444444444IIIIIIIIIIIIIIIIIIIIIIIIIIIIIIIIIIIIIIIIIIIII
AAA244444I4444444444IIIIIIIIIIIIIIIIIIIIIIIIIIIIIIIIIIIIIIIIIIII
AAAA24444444444444444IIIIIIIIIIIIIIIIIIIIIIIIIIIIIIIIIIIIIIIIIII
AAAA2A24444444444444444IIIIIIIIIIIIIIIIIIIIIIIIIIIIIIIIIIIIIIIII
AAAA2AA24444444444444444IIIIIIIIIIIIIIIIIIIIIIIIIIIIIIIIIIIIIIII
AAAAAAA24444444444444444IIIIIIIIIIIIIIIIIIIIIIIIIIIIIIIIIIIIIIII
AAAAAAAA24444444444444444IIIIIIIIIIIIIIIIIIIIIIIIIIIIIIIIIIIIIII
AAAAAAAAA24444444444444444IIIIIIIIIIIIIIIIIIIIIIIIIIIIIIIIIIIIII
AAAAAAAAAA24444444444444444IIIIIIIIIIIIIIIIIIIIIIIIIIIIIIIIIIIII
AAAAAAAAAAA24444444444444444IIIIIIIIIIIIIIIIIIIIIIIIIIIIIIIIIIII
AAAAAAAAAAAA24444444444444444IIIIIIIIIIIIIIIIIIIIIIIIIIIIIIIIIII
AAAAAAAAAAAAA24444444444444444IIIIIIIIIIIIIIIIIIIIIIIIIIIIIIIIII
AAAAAAAAAAAAAA24444444444444444IIIIIIIIIIIIIIIIIIIIIIIIIIIIIIIII
AAAAAAAAAAAAAAA24444444444444444IIIIIIIIIIIIIIIIIIIIIIIIIIIIIIII
AAAAAAAAAAAAAAAA24444444444444444IIIIIIIIIIIIIIIIIIIIIIIIIIIIIII
AAAAAAAAAAAAAAAAA24444444444444444IIIIIIIIIIIIIIIIIIIIIIIIIIIIII
AAAAAAAAAAAAAAAAAA24444444444444444IIIIIIIIIIIIIIIIIIIIIIIIIIIII
AAAAAAAAAAAAAAAAAAA24444444444444444IIIIIIIIIIIIIIIIIIIIIIIIIIII
AAAAAAAAAAAAAAAAAAAA24444444444444444IIIIIIIIIIIIIIIIIIIIIIIIIII
AAAAAAAAAAAAAAAAAAAAA24444444444444444IIIIIIIIIIIIIIIIIIIIIIIIII
AAAAAAAAAAAAAAAAAAAAAA24444444444444444IIIIIIIIIIIIIIIIIIIIIIIII
AAAAAAAAAAAAAAAAAAAAAAA24444444444444444IIIIIIIIIIIIIIIIIIIIIIII
AAAAAAAAAAAAAAAAAAAAAAAA24444444444444444IIIIIIIIIIIIIIIIIIIIIII
AAAAAAAAAAAAAAAAAAAAAAAAA24444444444444444IIIIIIIIIIIIIIIIIIIIII
AAAAAAAAAAAAAAAAAAAAAAAAAA24444444444444444IIIIIIIIIIIIIIIIIIIII
AAAAAAAAAAAAAAAAAAAAAAAAAAA24444444444444444IIIIIIIIIIIIIIIIIIII
AAAAAAAAAAAAAAAAAAAAAAAAAAAA24444444444444444IIIIIIIIIIIIIIIIIII
AAAAAAAAAAAAAAAAAAAAAAAAAAAAA24444444444444444IIIIIIIIIIIIIIIIII
AAAAAAAAAAAAAAAAAAAAAAAAAAAAAA24444444444444444IIIIIIIIIIIIIIIII
AAAAAAAAAAAAAAAAAAAAAAAAAAAAAAA24444444444444444IIIIIIIIIIIIIIII
AAAAAAAAAAAAAAAAAAAAAAAAAAAAAAA2A24444444444444444IIIIIIIIIIIIII
AAAAAAAAAAAAAAAAAAAAAAAAAAAAAAA2AA24444444444444444IIIIIIIIIIIII
AAAAAAAAAAAAAAAAAAAAAAAAAAAAAAAAAA24444444444444444IIIIIIIIIIIII
AAAAAAAAAAAAAAAAAAAAAAAAAAAAAAAAAAA24444444444444444IIIIIIIIIIII
AAAAAAAAAAAAAAAAAAAAAAAAAAAAAAAAAAAA24444444444444444IIIIIIIIIII
AAAAAAAAAAAAAAAAAAAAAAAAAAAAAAAAAAAAA24444444444444444IIIIIIIIII
AAAAAAAAAAAAAAAAAAAAAAAAAAAAAAAAAAAAAA24444444444444444IIIIIIIII
AAAAAAAAAAAAAAAAAAAAAAAAAAAAAAAAAAAAAAA24444444444444444IIIIIIII
AAAAAAAAAAAAAAAAAAAAAAAAAAAAAAAAAAAAAAAA24444444444444444IIIIIII
AAAAAAAAAAAAAAAAAAAAAAAAAAAAAAAAAAAAAAAA2A24444444444444444IIIII
AAAAAAAAAAAAAAAAAAAAAAAAAAAAAAAAAAAAAAAA2AA24444444444444444IIII
AAAAAAAAAAAAAAAAAAAAAAAAAAAAAAAAAAAAAAAAAAA24444444444444444IIII
AAAAAAAAAAAAAAAAAAAAAAAAAAAAAAAAAAAAAAAAAAAA24444444444444444III
AAAAAAAAAAAAAAAAAAAAAAAAAAAAAAAAAAAAAAAAAAAAA24444444444444444II
AAAAAAAAAAAAAAAAAAAAAAAAAAAAAAAAAAAAAAAAAAAAAA24444444444444444I
AAAAAAAAAAAAAAAAAAAAAAAAAAAAAAAAAAAAAAAAAAAAAAA24444444444444444
AAAAAAAAAAAAAAAAAAAAAAAAAAAAAAAAAAAAAAAAAAAAAAAA2444444444444444
AAAAAAAAAAAAAAAAAAAAAAAAAAAAAAAAAAAAAAAAAAAAAAAAA244444444444444
AAAAAAAAAAAAAAAAAAAAAAAAAAAAAAAAAAAAAAAAAAAAAAAAA2A2444444444444
AAAAAAAAAAAAAAAAAAAAAAAAAAAAAAAAAAAAAAAAAAAAAAAAA2AA244444444444
AAAAAAAAAAAAAAAAAAAAAAAAAAAAAAAAAAAAAAAAAAAAAAAAAAAA244444444444
AAAAAAAAAAAAAAAAAAAAAAAAAAAAAAAAAAAAAAAAAAAAAAAAAAAAA24444444444
AAAAAAAAAAAAAAAAAAAAAAAAAAAAAAAAAAAAAAAAAAAAAAAAAAAAAA2444444444
AAAAAAAAAAAAAAAAAAAAAAAAAAAAAAAAAAAAAAAAAAAAAAAAAAAAAAA244444444
AAAAAAAAAAAAAAAAAAAAAAAAAAAAAAAAAAAAAAAAAAAAAAAAAAAAAAAA24444444
AAAAAAAAAAAAAAAAAAAAAAAAAAAAAAAAAAAAAAAAAAAAAAAAAAAAAAAAA2444444
AAAAAAAAAAAAAAAAAAAAAAAAAAAAAAAAAAAAAAAAAAAAAAAAAAAAAAAAAA244444
AAAAAAAAAAAAAAAAAAAAAAAAAAAAAAAAAAAAAAAAAAAAAAAAAAAAAAAAAAA24444
AAAAAAAAAAAAAAAAAAAAAAAAAAAAAAAAAAAAAAAAAAAAAAAAAAAAAAAAAAAA2444
AAAAAAAAAAAAAAAAAAAAAAAAAAAAAAAAAAAAAAAAAAAAAAAAAAAAAAAAAAAAA244
AAAAAAAAAAAAAAAAAAAAAAAAAAAAAAAAAAAAAAAAAAAAAAAAAAAAAAAAAAAAAA24
AAAAAAAAAAAAAAAAAAAAAAAAAAAAAAAAAAAAAAAAAAAAAAAAAAAAAAAAAAAAAAA2
AAAAAAAAAAAAAAAAAAAAAAAAAAAAAAAAAAAAAAAAAAAAAAAAAAAAAAAAAAAAAAAA
AAAIAAAAAAAAAAAAAAAAAAAAAAAAAAAAAAAAAAAAAAAAAAAAAAAAAAAAAAAAAAAA
AAAIAAAAAAAAIAAAAAAAAAAAAAAAAAAAAAAAAAAAAAAAAAAAAAAAAAAAAAAAAAAA
AAAIAAAAAAAAIAAAAAAAAAAAAAAAAAAAIAAAAAAAAAAAAAAAAAAAAAAAAAAAAAAA
AAAIAAAAAAAAIAAAAAAAAAAAAAAAAAAAIAAAAAAAAAAAAAAAAAAAAAAIAAAAAAAA
AAAIAAAAAAAAIAAAAAAAAAAAAAAAAAAAIAAAAAAAAAAAAAAAAAAAAAAIIAAAAAAA
AAAIAAAAAAAAIAAAAAIAAAAAAAAAAAAAIAAAAAAAAAAAAAAAAAAAAAAIIAAAAAAA
AAAIAAAAAAAAIAAAAAIAAAAAAAAAAAAAIAAAAAAAAAAAAAAAAAAAAAAIIIAAAAAA
AAAIAAAAAAAAIAAAAAIAAAAAAAAAAAAAIAAAAAAAIAAAAAAAAAAAAAAIIIAAAAAA
AAAIAAAAAAAAIAAAAAIAAAAAAAAAAAAAIAAAAAAAIAAAAAAAAAAAAAAIIIAAIAAA
AAAIAAAAAAAAIAAAAAIAAAAAAAAAAAAAIAAAAAAAIAAAAAAAAAAAAIAIIIAAIAAA
A2II4I4I4I4I4I4I444IIIIIIIIIIIIIIIIIIIIIIIIIIIIIIIIIIIIIIIIIIIII
AA2I4444444444444444IIIIIIIIIIIIIIIIIIIIIIIIIIIIIIIIIIIIIIIIIIII
AAA244444444444444444IIIIIIIIIIIIIIIIIIIIIIIIIIIIIIIIIIIIIIIIIII
AAAA244444444444444444IIIIIIIIIIIIIIIIIIIIIIIIIIIIIIIIIIIIIIIIII
AAAA2A244444444444444444IIIIIIIIIIIIIIIIIIIIIIIIIIIIIIIIIIIIIIII
AAAA2AA244444444444444444IIIIIIIIIIIIIIIIIIIIIIIIIIIIIIIIIIIIIII
AAAAAAA244444444444444444IIIIIIIIIIIIIIIIIIIIIIIIIIIIIIIIIIIIIII
AAAAAAAA244444444444444444IIIIIIIIIIIIIIIIIIIIIIIIIIIIIIIIIIIIII
AAAAAAAAA244444444444444444IIIIIIIIIIIIIIIIIIIIIIIIIIIIIIIIIIIII
AAAAAAAAAA244444444444444444IIIIIIIIIIIIIIIIIIIIIIIIIIIIIIIIIIII
AAAAAAAAAAA244444444444444444IIIIIIIIIIIIIIIIIIIIIIIIIIIIIIIIIII
AAAAAAAAAAAA244444444444444444IIIIIIIIIIIIIIIIIIIIIIIIIIIIIIIIII
AAAAAAAAAAAAA244444444444444444IIIIIIIIIIIIIIIIIIIIIIIIIIIIIIIII
AAAAAAAAAAAAAA244444444444444444IIIIIIIIIIIIIIIIIIIIIIIIIIIIIIII
AAAAAAAAAAAAAAA244444444444444444IIIIIIIIIIIIIIIIIIIIIIIIIIIIIII
AAAAAAAAAAAAAAAA244444444444444444IIIIIIIIIIIIIIIIIIIIIIIIIIIIII
AAAAAAAAAAAAAAAAA244444444444444444IIIIIIIIIIIIIIIIIIIIIIIIIIIII
AAAAAAAAAAAAAAAAAA244444444444444444IIIIIIIIIIIIIIIIIIIIIIIIIIII
AAAAAAAAAAAAAAAAAAA244444444444444444IIIIIIIIIIIIIIIIIIIIIIIIIII
AAAAAAAAAAAAAAAAAAAA244444444444444444IIIIIIIIIIIIIIIIIIIIIIIIII
AAAAAAAAAAAAAAAAAAAAA244444444444444444IIIIIIIIIIIIIIIIIIIIIIIII
AAAAAAAAAAAAAAAAAAAAAA244444444444444444IIIIIIIIIIIIIIIIIIIIIIII
AAAAAAAAAAAAAAAAAAAAAAA244444444444444444IIIIIIIIIIIIIIIIIIIIIII
AAAAAAAAAAAAAAAAAAAAAAAA244444444444444444IIIIIIIIIIIIIIIIIIIIII
AAAAAAAAAAAAAAAAAAAAAAAAA244444444444444444IIIIIIIIIIIIIIIIIIIII
AAAAAAAAAAAAAAAAAAAAAAAAAA244444444444444444IIIIIIIIIIIIIIIIIIII
AAAAAAAAAAAAAAAAAAAAAAAAAAA244444444444444444IIIIIIIIIIIIIIIIIII
AAAAAAAAAAAAAAAAAAAAAAAAAAAA244444444444444444IIIIIIIIIIIIIIIIII
AAAAAAAAAAAAAAAAAAAAAAAAAAAAA244444444444444444IIIIIIIIIIIIIIIII
AAAAAAAAAAAAAAAAAAAAAAAAAAAAAA244444444444444444IIIIIIIIIIIIIIII
AAAAAAAAAAAAAAAAAAAAAAAAAAAAAAA244444444444444444IIIIIIIIIIIIIII
AAAAAAAAAAAAAAAAAAAAAAAAAAAAAAA2A244444444444444444IIIIIIIIIIIII
AAAAAAAAAAAAAAAAAAAAAAAAAAAAAAA2AA244444444444444444IIIIIIIIIIII
AAAAAAAAAAAAAAAAAAAAAAAAAAAAAAAAAA244444444444444444IIIIIIIIIIII
AAAAAAAAAAAAAAAAAAAAAAAAAAAAAAAAAAA244444444444444444IIIIIIIIIII
AAAAAAAAAAAAAAAAAAAAAAAAAAAAAAAAAAAA244444444444444444IIIIIIIIII
AAAAAAAAAAAAAAAAAAAAAAAAAAAAAAAAAAAAA244444444444444444IIIIIIIII
AAAAAAAAAAAAAAAAAAAAAAAAAAAAAAAAAAAAAA244444444444444444IIIIIIII
AAAAAAAAAAAAAAAAAAAAAAAAAAAAAAAAAAAAAAA244444444444444444IIIIIII
AAAAAAAAAAAAAAAAAAAAAAAAAAAAAAAAAAAAAAAA244444444444444444IIIIII
AAAAAAAAAAAAAAAAAAAAAAAAAAAAAAAAAAAAAAAA2A244444444444444444IIII
AAAAAAAAAAAAAAAAAAAAAAAAAAAAAAAAAAAAAAAA2AA244444444444444444III
AAAAAAAAAAAAAAAAAAAAAAAAAAAAAAAAAAAAAAAAAAA244444444444444444III
AAAAAAAAAAAAAAAAAAAAAAAAAAAAAAAAAAAAAAAAAAAA244444444444444444II
AAAAAAAAAAAAAAAAAAAAAAAAAAAAAAAAAAAAAAAAAAAAA244444444444444444I
AAAAAAAAAAAAAAAAAAAAAAAAAAAAAAAAAAAAAAAAAAAAAA244444444444444444
AAAAAAAAAAAAAAAAAAAAAAAAAAAAAAAAAAAAAAAAAAAAAAA24444444444444444
AAAAAAAAAAAAAAAAAAAAAAAAAAAAAAAAAAAAAAAAAAAAAAAA2444444444444444
AAAAAAAAAAAAAAAAAAAAAAAAAAAAAAAAAAAAAAAAAAAAAAAAA244444444444444
AAAAAAAAAAAAAAAAAAAAAAAAAAAAAAAAAAAAAAAAAAAAAAAAA2A2444444444444
AAAAAAAAAAAAAAAAAAAAAAAAAAAAAAAAAAAAAAAAAAAAAAAAA2AA244444444444
AAAAAAAAAAAAAAAAAAAAAAAAAAAAAAAAAAAAAAAAAAAAAAAAAAAA244444444444
AAAAAAAAAAAAAAAAAAAAAAAAAAAAAAAAAAAAAAAAAAAAAAAAAAAAA24444444444
AAAAAAAAAAAAAAAAAAAAAAAAAAAAAAAAAAAAAAAAAAAAAAAAAAAAAA2444444444
AAAAAAAAAAAAAAAAAAAAAAAAAAAAAAAAAAAAAAAAAAAAAAAAAAAAAAA244444444
AAAAAAAAAAAAAAAAAAAAAAAAAAAAAAAAAAAAAAAAAAAAAAAAAAAAAAAA24444444
AAAAAAAAAAAAAAAAAAAAAAAAAAAAAAAAAAAAAAAAAAAAAAAAAAAAAAAAA2444444
AAAAAAAAAAAAAAAAAAAAAAAAAAAAAAAAAAAAAAAAAAAAAAAAAAAAAAAAAA244444
AAAAAAAAAAAAAAAAAAAAAAAAAAAAAAAAAAAAAAAAAAAAAAAAAAAAAAAAAAA24444
AAAAAAAAAAAAAAAAAAAAAAAAAAAAAAAAAAAAAAAAAAAAAAAAAAAAAAAAAAAA2444
AAAAAAAAAAAAAAAAAAAAAAAAAAAAAAAAAAAAAAAAAAAAAAAAAAAAAAAAAAAAA244
AAAAAAAAAAAAAAAAAAAAAAAAAAAAAAAAAAAAAAAAAAAAAAAAAAAAAAAAAAAAAA24
AAAAAAAAAAAAAAAAAAAAAAAAAAAAAAAAAAAAAAAAAAAAAAAAAAAAAAAAAAAAAAA2
AAAAAAAAAAAAAAAAAAAAAAAAAAAAAAAAAAAAAAAAAAAAAAAAAAAAAAAAAAAAAAAA
AAAIAAAAAAAAAAAAAAAAAAAAAAAAAAAAAAAAAAAAAAAAAAAAAAAAAAAAAAAAAAAA
AAAIAAAAAAAAIAAAAAAAAAAAAAAAAAAAAAAAAAAAAAAAAAAAAAAAAAAAAAAAAAAA
AAAIAAAAAAAAIAAAAAAAAAAAAAAAAAAAIAAAAAAAAAAAAAAAAAAAAAAAAAAAAAAA
AAAIAAAAAAAAIAAAAAAAAAAAAAAAAAAAIAAAAAAAAAAAAAAAAAAAAAAIAAAAAAAA
AAAIAAAAAAAAIAAAAAAAAAAAAAAAAAAAIAAAAAAAAAAAAAAAAAAAAAAIIAAAAAAA
AAAIAAAAAAAAIAAAAAAAAAAAAAAAAAAAIAAAAAAAAAAAAAAAAAAAAAAIIAAAAAAI
AAAIAAAAAAAAIAAAAAIAAAAAAAAAAAAAIAAAAAAAAAAAAAAAAAAAAAAIIAAAAAAI
AAAIAAAAAAAAIAAAAAIAAAAAAAAAAAAAIAAAAAAAAAAAAAAAAAAAAAAIIIAAAAAI
AAAIAAAAAAAAIAAAAAIAAAAAAAAAAAAAIAAAAAAAIAAAAAAAAAAAAAAIIIAAAAAI
AAAIAAAAAAAAIAAAAAIAAAAAAAAAAAAAIAAAAAAAIAAAAAAAAAAAAAAIIIAAIAAI
AAAIAAAAAAAAIAAAAAIAAAAAAAAAAAAAIAAAAAAAIAAAAAAAAAAAAIAIIIAAIAAI
[MLOP] Prefetch Degree Mean: 9.88795
[MLOP] Prefetch Degree SD: 4.69586
[MLOP] Max Score Left Mean (%): 32.03684
[MLOP] Max Score Left SD (%): 20.87830
[MLOP] Max Score Right Mean (%): 75.29248
[MLOP] Max Score Right SD (%): 11.89562

Channel_0_RQ_row_buffer_hit 1469411
Channel_0_RQ_row_buffer_miss 7945559
Channel_0_WQ_row_buffer_hit 76191
Channel_0_WQ_row_buffer_miss 577854
Channel_0_WQ_full 0
Channel_0_dbus_congested 4868913

Channel_1_RQ_row_buffer_hit 1488447
Channel_1_RQ_row_buffer_miss 8050161
Channel_1_WQ_row_buffer_hit 75452
Channel_1_WQ_row_buffer_miss 577471
Channel_1_WQ_full 0
Channel_1_dbus_congested 4910988

avg_congested_cycle 10

DRAM_bw_pochs 1891078
DRAM_bw_level_0 412622
DRAM_bw_level_1 625517
DRAM_bw_level_2 445809
DRAM_bw_level_3 407130
