*************************************************
   ChampSim Multicore Out-of-Order Simulator
   Last compiled: Mar 31 2025 20:14:32
*************************************************
parsing config file: /data3/config/mlop.ini

trace_0 /data3/CASSANDRA/traces/cassandra_phase3_core0.trace.xz
trace_1 /data3/CASSANDRA/traces/cassandra_phase3_core1.trace.xz
trace_2 /data3/CASSANDRA/traces/cassandra_phase3_core2.trace.xz
trace_3 /data3/CASSANDRA/traces/cassandra_phase3_core3.trace.xz
adding L2C_PREFETCHER: MLOP
adding L2C_PREFETCHER: MLOP
adding L2C_PREFETCHER: MLOP
adding L2C_PREFETCHER: MLOP
Initialize SHIP state
warmup_instructions 50000000
simulation_instructions 150000000
champsim_seed 8754
measure_ipc 0
measure_ipc_epoch 1000
measure_dram_bw 1
measure_dram_bw_epoch 256
measure_cache_acc 1
measure_cache_acc_epoch 1024
l1d_perfect 0
l2c_perfect 0
llc_perfect 0
l1d_semi_perfect 0
l2c_semi_perfect 0
llc_semi_perfect 0
semi_perfect_cache_page_buffer_size 64

num_cpus 4
cpu_freq 4000
dram_io_freq 2400
page_size 4096
block_size 64
max_read_per_cycle 8
max_fill_per_cycle 1
dram_channels 2
log2_dram_channels 1
dram_ranks 1
dram_banks 8
dram_rows 65536
dram_columns 128
dram_row_size 8
dram_size 8192
dram_pages 2097152

fetch_width 6
decode_width 6
exec_width 4
lq_width 2
sq_width 2
retire_width 4
scheduler_size 128
branch_mispredict_penalty 20
rob_size 256
lq_size 72
sq_size 56
num_instr_destinations_sparc 4
num_instr_destinations 2
num_instr_sources 4

itlb_set 16
itlb_way 8
itlb_rq_size 16
itlb_wq_size 16
itlb_pq_size 0
itlb_mshr_size 8
itlb_latency 1

dtlb_set 16
dtlb_way 4
dtlb_rq_size 16
dtlb_wq_size 16
dtlb_pq_size 0
dtlb_mshr_size 8
dtlb_latency 1

stlb_set 128
stlb_way 12
stlb_rq_size 32
stlb_wq_size 32
stlb_pq_size 0
stlb_mshr_size 16
stlb_latency 8

l1i_size 32
l1i_set 64
l1i_way 8
l1i_rq_size 64
l1i_wq_size 64
l1i_pq_size 8
l1i_mshr_size 8
l1i_latency 1

l1d_size 32
l1d_set 64
l1d_way 8
l1d_rq_size 64
l1d_wq_size 64
l1d_pq_size 8
l1d_mshr_size 16
l1d_latency 4

l2c_size 256
l2c_set 512
l2c_way 8
l2c_rq_size 32
l2c_wq_size 32
l2c_pq_size 32
l2c_mshr_size 32
l2c_latency 10

llc_size 8192
llc_set 8192
llc_way 16
llc_rq_size 128
llc_wq_size 128
llc_pq_size 128
llc_mshr_size 256
llc_latency 20

dram_channel_width 8
dram_wq_size 64
dram_rq_size 64
tRP 15
tRCD 15
tCAS 12.5
dram_dbus_turn_around_time 30
dram_write_high_wm 56
dram_write_low_wm 48
min_dram_writes_per_switch 16
dram_mtps 2400
dram_dbus_return_time 13

mlop_pref_degree 16
mlop_num_updates 500
mlop_l1d_thresh 2
mlop_l2c_thresh 0.75
mlop_llc_thresh 0.3
mlop_debug_level 0
mlop_blocks_in_cache 4096
mlop_blocks_in_zone 64
mlop_amt_size 2048
mlop_PF_DEGREE 16
mlop_NUM_UPDATES 500
mlop_L1D_THRESH 1000
mlop_L2C_THRESH 375
mlop_LLC_THRESH 150
mlop_ORIGIN 63
mlop_MAX_OFFSET 63
mlop_MIN_OFFSET -63
mlop_ORIGIN 63
mlop_NUM_OFFSETS 127


Heartbeat CPU  0 instructions:    1000001 cycles:     327398 heartbeat IPC: 3.05439 cumulative IPC: 3.05439 (Simulation time: 0 hr 0 min 4 sec) 
Heartbeat CPU  2 instructions:    1000001 cycles:     405771 heartbeat IPC: 2.46445 cumulative IPC: 2.46445 (Simulation time: 0 hr 0 min 5 sec) 
Heartbeat CPU  3 instructions:    1000000 cycles:     470223 heartbeat IPC: 2.12665 cumulative IPC: 2.12665 (Simulation time: 0 hr 0 min 7 sec) 
Heartbeat CPU  1 instructions:    1000002 cycles:     483713 heartbeat IPC: 2.06735 cumulative IPC: 2.06735 (Simulation time: 0 hr 0 min 7 sec) 
Heartbeat CPU  0 instructions:    2000000 cycles:     659233 heartbeat IPC: 3.01354 cumulative IPC: 3.03383 (Simulation time: 0 hr 0 min 10 sec) 
Heartbeat CPU  2 instructions:    2000000 cycles:     735736 heartbeat IPC: 3.03062 cumulative IPC: 2.71837 (Simulation time: 0 hr 0 min 11 sec) 
Heartbeat CPU  3 instructions:    2000003 cycles:     802820 heartbeat IPC: 3.00665 cumulative IPC: 2.49122 (Simulation time: 0 hr 0 min 12 sec) 
Heartbeat CPU  0 instructions:    3000003 cycles:    1051961 heartbeat IPC: 2.54630 cumulative IPC: 2.85182 (Simulation time: 0 hr 0 min 15 sec) 
Heartbeat CPU  2 instructions:    3000000 cycles:    1064664 heartbeat IPC: 3.04018 cumulative IPC: 2.81779 (Simulation time: 0 hr 0 min 16 sec) 
Heartbeat CPU  3 instructions:    3000000 cycles:    1131710 heartbeat IPC: 3.04052 cumulative IPC: 2.65086 (Simulation time: 0 hr 0 min 17 sec) 
Heartbeat CPU  1 instructions:    2000003 cycles:    1190385 heartbeat IPC: 1.41509 cumulative IPC: 1.68013 (Simulation time: 0 hr 0 min 18 sec) 
Heartbeat CPU  0 instructions:    4000000 cycles:    1383371 heartbeat IPC: 3.01740 cumulative IPC: 2.89149 (Simulation time: 0 hr 0 min 21 sec) 
Heartbeat CPU  2 instructions:    4000000 cycles:    1392544 heartbeat IPC: 3.04990 cumulative IPC: 2.87244 (Simulation time: 0 hr 0 min 21 sec) 
Heartbeat CPU  3 instructions:    4000000 cycles:    1460736 heartbeat IPC: 3.03927 cumulative IPC: 2.73835 (Simulation time: 0 hr 0 min 23 sec) 
Heartbeat CPU  1 instructions:    3000003 cycles:    1706436 heartbeat IPC: 1.93779 cumulative IPC: 1.75805 (Simulation time: 0 hr 0 min 27 sec) 
Heartbeat CPU  2 instructions:    5000002 cycles:    1720149 heartbeat IPC: 3.05246 cumulative IPC: 2.90673 (Simulation time: 0 hr 0 min 27 sec) 
Heartbeat CPU  0 instructions:    5000003 cycles:    1722485 heartbeat IPC: 2.94887 cumulative IPC: 2.90278 (Simulation time: 0 hr 0 min 27 sec) 
Heartbeat CPU  3 instructions:    5000001 cycles:    1871859 heartbeat IPC: 2.43236 cumulative IPC: 2.67114 (Simulation time: 0 hr 0 min 29 sec) 
Heartbeat CPU  1 instructions:    4000000 cycles:    2031359 heartbeat IPC: 3.07764 cumulative IPC: 1.96913 (Simulation time: 0 hr 0 min 31 sec) 
Heartbeat CPU  2 instructions:    6000003 cycles:    2047025 heartbeat IPC: 3.05927 cumulative IPC: 2.93108 (Simulation time: 0 hr 0 min 32 sec) 
Heartbeat CPU  0 instructions:    6000000 cycles:    2192066 heartbeat IPC: 2.12955 cumulative IPC: 2.73714 (Simulation time: 0 hr 0 min 34 sec) 
Heartbeat CPU  3 instructions:    6000003 cycles:    2312002 heartbeat IPC: 2.27199 cumulative IPC: 2.59515 (Simulation time: 0 hr 0 min 36 sec) 
Heartbeat CPU  1 instructions:    5000000 cycles:    2359258 heartbeat IPC: 3.04972 cumulative IPC: 2.11931 (Simulation time: 0 hr 0 min 37 sec) 
Heartbeat CPU  0 instructions:    7000003 cycles:    2518382 heartbeat IPC: 3.06452 cumulative IPC: 2.77956 (Simulation time: 0 hr 0 min 40 sec) 
Heartbeat CPU  2 instructions:    7000002 cycles:    2615729 heartbeat IPC: 1.75838 cumulative IPC: 2.67612 (Simulation time: 0 hr 0 min 41 sec) 
Heartbeat CPU  3 instructions:    7000000 cycles:    2639463 heartbeat IPC: 3.05379 cumulative IPC: 2.65205 (Simulation time: 0 hr 0 min 42 sec) 
Heartbeat CPU  1 instructions:    6000001 cycles:    2722294 heartbeat IPC: 2.75455 cumulative IPC: 2.20402 (Simulation time: 0 hr 0 min 43 sec) 
Heartbeat CPU  0 instructions:    8000000 cycles:    2828899 heartbeat IPC: 3.22043 cumulative IPC: 2.82796 (Simulation time: 0 hr 0 min 45 sec) 
Heartbeat CPU  3 instructions:    8000000 cycles:    2967867 heartbeat IPC: 3.04503 cumulative IPC: 2.69554 (Simulation time: 0 hr 0 min 48 sec) 
Heartbeat CPU  2 instructions:    8000000 cycles:    2972610 heartbeat IPC: 2.80205 cumulative IPC: 2.69124 (Simulation time: 0 hr 0 min 48 sec) 
Heartbeat CPU  1 instructions:    7000001 cycles:    3052755 heartbeat IPC: 3.02608 cumulative IPC: 2.29301 (Simulation time: 0 hr 0 min 49 sec) 
Heartbeat CPU  0 instructions:    9000001 cycles:    3158299 heartbeat IPC: 3.03583 cumulative IPC: 2.84964 (Simulation time: 0 hr 0 min 51 sec) 
Heartbeat CPU  2 instructions:    9000001 cycles:    3297486 heartbeat IPC: 3.07810 cumulative IPC: 2.72935 (Simulation time: 0 hr 0 min 53 sec) 
Heartbeat CPU  3 instructions:    9000001 cycles:    3355452 heartbeat IPC: 2.58008 cumulative IPC: 2.68220 (Simulation time: 0 hr 0 min 55 sec) 
Heartbeat CPU  1 instructions:    8000000 cycles:    3380154 heartbeat IPC: 3.05437 cumulative IPC: 2.36676 (Simulation time: 0 hr 0 min 55 sec) 
Heartbeat CPU  0 instructions:   10000001 cycles:    3558361 heartbeat IPC: 2.49961 cumulative IPC: 2.81028 (Simulation time: 0 hr 0 min 58 sec) 
Heartbeat CPU  2 instructions:   10000000 cycles:    3622359 heartbeat IPC: 3.07812 cumulative IPC: 2.76063 (Simulation time: 0 hr 0 min 59 sec) 
Heartbeat CPU  3 instructions:   10000003 cycles:    3684862 heartbeat IPC: 3.03574 cumulative IPC: 2.71381 (Simulation time: 0 hr 1 min 0 sec) 
Heartbeat CPU  1 instructions:    9000002 cycles:    3703027 heartbeat IPC: 3.09720 cumulative IPC: 2.43044 (Simulation time: 0 hr 1 min 1 sec) 
Heartbeat CPU  2 instructions:   11000002 cycles:    3943134 heartbeat IPC: 3.11746 cumulative IPC: 2.78966 (Simulation time: 0 hr 1 min 5 sec) 
Heartbeat CPU  3 instructions:   11000001 cycles:    4012312 heartbeat IPC: 3.05390 cumulative IPC: 2.74156 (Simulation time: 0 hr 1 min 6 sec) 
Heartbeat CPU  1 instructions:   10000003 cycles:    4029373 heartbeat IPC: 3.06424 cumulative IPC: 2.48178 (Simulation time: 0 hr 1 min 6 sec) 
Heartbeat CPU  0 instructions:   11000003 cycles:    4067841 heartbeat IPC: 1.96279 cumulative IPC: 2.70414 (Simulation time: 0 hr 1 min 7 sec) 
Heartbeat CPU  0 instructions:   12000000 cycles:    4390880 heartbeat IPC: 3.09559 cumulative IPC: 2.73294 (Simulation time: 0 hr 1 min 12 sec) 
Heartbeat CPU  3 instructions:   12000000 cycles:    4399267 heartbeat IPC: 2.58428 cumulative IPC: 2.72773 (Simulation time: 0 hr 1 min 12 sec) 
Heartbeat CPU  2 instructions:   12000000 cycles:    4443361 heartbeat IPC: 1.99909 cumulative IPC: 2.70066 (Simulation time: 0 hr 1 min 13 sec) 
Heartbeat CPU  1 instructions:   11000000 cycles:    4451151 heartbeat IPC: 2.37091 cumulative IPC: 2.47127 (Simulation time: 0 hr 1 min 13 sec) 
Heartbeat CPU  0 instructions:   13000002 cycles:    4707294 heartbeat IPC: 3.16042 cumulative IPC: 2.76167 (Simulation time: 0 hr 1 min 17 sec) 
Heartbeat CPU  2 instructions:   13000000 cycles:    4813482 heartbeat IPC: 2.70182 cumulative IPC: 2.70075 (Simulation time: 0 hr 1 min 19 sec) 
Heartbeat CPU  1 instructions:   12000000 cycles:    4819078 heartbeat IPC: 2.71793 cumulative IPC: 2.49010 (Simulation time: 0 hr 1 min 19 sec) 
Heartbeat CPU  3 instructions:   13000002 cycles:    4857950 heartbeat IPC: 2.18016 cumulative IPC: 2.67603 (Simulation time: 0 hr 1 min 20 sec) 
Heartbeat CPU  2 instructions:   14000000 cycles:    5177506 heartbeat IPC: 2.74707 cumulative IPC: 2.70400 (Simulation time: 0 hr 1 min 24 sec) 
Heartbeat CPU  0 instructions:   14000002 cycles:    5188867 heartbeat IPC: 2.07653 cumulative IPC: 2.69808 (Simulation time: 0 hr 1 min 24 sec) 
Heartbeat CPU  3 instructions:   14000003 cycles:    5260170 heartbeat IPC: 2.48620 cumulative IPC: 2.66151 (Simulation time: 0 hr 1 min 25 sec) 
Heartbeat CPU  1 instructions:   13000001 cycles:    5488554 heartbeat IPC: 1.49371 cumulative IPC: 2.36857 (Simulation time: 0 hr 1 min 29 sec) 
Heartbeat CPU  2 instructions:   15000000 cycles:    5503995 heartbeat IPC: 3.06289 cumulative IPC: 2.72529 (Simulation time: 0 hr 1 min 29 sec) 
Heartbeat CPU  3 instructions:   15000001 cycles:    5589216 heartbeat IPC: 3.03908 cumulative IPC: 2.68374 (Simulation time: 0 hr 1 min 31 sec) 
Heartbeat CPU  0 instructions:   15000001 cycles:    5690567 heartbeat IPC: 1.99322 cumulative IPC: 2.63594 (Simulation time: 0 hr 1 min 32 sec) 
Heartbeat CPU  1 instructions:   14000002 cycles:    5810224 heartbeat IPC: 3.10878 cumulative IPC: 2.40955 (Simulation time: 0 hr 1 min 34 sec) 
Heartbeat CPU  2 instructions:   16000000 cycles:    5826669 heartbeat IPC: 3.09910 cumulative IPC: 2.74599 (Simulation time: 0 hr 1 min 34 sec) 
Heartbeat CPU  3 instructions:   16000000 cycles:    5992802 heartbeat IPC: 2.47778 cumulative IPC: 2.66987 (Simulation time: 0 hr 1 min 37 sec) 
Heartbeat CPU  0 instructions:   16000000 cycles:    6146048 heartbeat IPC: 2.19548 cumulative IPC: 2.60330 (Simulation time: 0 hr 1 min 39 sec) 
Heartbeat CPU  1 instructions:   15000000 cycles:    6182200 heartbeat IPC: 2.68834 cumulative IPC: 2.42632 (Simulation time: 0 hr 1 min 40 sec) 
Heartbeat CPU  2 instructions:   17000002 cycles:    6206244 heartbeat IPC: 2.63453 cumulative IPC: 2.73918 (Simulation time: 0 hr 1 min 40 sec) 
Heartbeat CPU  3 instructions:   17000003 cycles:    6357784 heartbeat IPC: 2.73987 cumulative IPC: 2.67389 (Simulation time: 0 hr 1 min 43 sec) 
Heartbeat CPU  1 instructions:   16000000 cycles:    6546855 heartbeat IPC: 2.74232 cumulative IPC: 2.44392 (Simulation time: 0 hr 1 min 46 sec) 
Heartbeat CPU  2 instructions:   18000003 cycles:    6580090 heartbeat IPC: 2.67490 cumulative IPC: 2.73553 (Simulation time: 0 hr 1 min 47 sec) 
Heartbeat CPU  0 instructions:   17000002 cycles:    6611034 heartbeat IPC: 2.15061 cumulative IPC: 2.57146 (Simulation time: 0 hr 1 min 47 sec) 
Heartbeat CPU  3 instructions:   18000000 cycles:    6684252 heartbeat IPC: 3.06308 cumulative IPC: 2.69290 (Simulation time: 0 hr 1 min 48 sec) 
Heartbeat CPU  1 instructions:   17000002 cycles:    6886203 heartbeat IPC: 2.94683 cumulative IPC: 2.46870 (Simulation time: 0 hr 1 min 52 sec) 
Heartbeat CPU  2 instructions:   19000002 cycles:    6909144 heartbeat IPC: 3.03901 cumulative IPC: 2.74998 (Simulation time: 0 hr 1 min 52 sec) 
Heartbeat CPU  0 instructions:   18000000 cycles:    6987813 heartbeat IPC: 2.65407 cumulative IPC: 2.57591 (Simulation time: 0 hr 1 min 54 sec) 
Heartbeat CPU  3 instructions:   19000003 cycles:    7009565 heartbeat IPC: 3.07397 cumulative IPC: 2.71058 (Simulation time: 0 hr 1 min 54 sec) 
Heartbeat CPU  2 instructions:   20000000 cycles:    7236407 heartbeat IPC: 3.05564 cumulative IPC: 2.76380 (Simulation time: 0 hr 1 min 58 sec) 
Heartbeat CPU  1 instructions:   18000000 cycles:    7293988 heartbeat IPC: 2.45227 cumulative IPC: 2.46779 (Simulation time: 0 hr 1 min 59 sec) 
Heartbeat CPU  0 instructions:   19000001 cycles:    7313093 heartbeat IPC: 3.07428 cumulative IPC: 2.59808 (Simulation time: 0 hr 2 min 0 sec) 
Heartbeat CPU  3 instructions:   20000000 cycles:    7335342 heartbeat IPC: 3.06958 cumulative IPC: 2.72653 (Simulation time: 0 hr 2 min 0 sec) 
Heartbeat CPU  1 instructions:   19000000 cycles:    7623264 heartbeat IPC: 3.03697 cumulative IPC: 2.49237 (Simulation time: 0 hr 2 min 4 sec) 
Heartbeat CPU  0 instructions:   20000000 cycles:    7697691 heartbeat IPC: 2.60011 cumulative IPC: 2.59818 (Simulation time: 0 hr 2 min 5 sec) 
Heartbeat CPU  2 instructions:   21000000 cycles:    7810093 heartbeat IPC: 1.74311 cumulative IPC: 2.68883 (Simulation time: 0 hr 2 min 7 sec) 
Heartbeat CPU  3 instructions:   21000000 cycles:    7820134 heartbeat IPC: 2.06274 cumulative IPC: 2.68538 (Simulation time: 0 hr 2 min 7 sec) 
Heartbeat CPU  1 instructions:   20000000 cycles:    7952437 heartbeat IPC: 3.03792 cumulative IPC: 2.51495 (Simulation time: 0 hr 2 min 9 sec) 
Heartbeat CPU  0 instructions:   21000002 cycles:    8021671 heartbeat IPC: 3.08662 cumulative IPC: 2.61791 (Simulation time: 0 hr 2 min 10 sec) 
Heartbeat CPU  0 instructions:   22000003 cycles:    8344778 heartbeat IPC: 3.09495 cumulative IPC: 2.63638 (Simulation time: 0 hr 2 min 15 sec) 
Heartbeat CPU  3 instructions:   22000001 cycles:    8351861 heartbeat IPC: 1.88067 cumulative IPC: 2.63414 (Simulation time: 0 hr 2 min 15 sec) 
Heartbeat CPU  2 instructions:   22000000 cycles:    8352716 heartbeat IPC: 1.84290 cumulative IPC: 2.63387 (Simulation time: 0 hr 2 min 15 sec) 
Heartbeat CPU  1 instructions:   21000000 cycles:    8398241 heartbeat IPC: 2.24314 cumulative IPC: 2.50052 (Simulation time: 0 hr 2 min 16 sec) 
Heartbeat CPU  0 instructions:   23000000 cycles:    8672732 heartbeat IPC: 3.04920 cumulative IPC: 2.65199 (Simulation time: 0 hr 2 min 21 sec) 
Heartbeat CPU  3 instructions:   23000001 cycles:    8676763 heartbeat IPC: 3.07785 cumulative IPC: 2.65076 (Simulation time: 0 hr 2 min 21 sec) 
Heartbeat CPU  1 instructions:   22000001 cycles:    8799611 heartbeat IPC: 2.49147 cumulative IPC: 2.50011 (Simulation time: 0 hr 2 min 23 sec) 
Heartbeat CPU  2 instructions:   23000002 cycles:    8803973 heartbeat IPC: 2.21604 cumulative IPC: 2.61246 (Simulation time: 0 hr 2 min 23 sec) 
Heartbeat CPU  3 instructions:   24000000 cycles:    9010290 heartbeat IPC: 2.99826 cumulative IPC: 2.66362 (Simulation time: 0 hr 2 min 26 sec) 
Heartbeat CPU  0 instructions:   24000000 cycles:    9131989 heartbeat IPC: 2.17743 cumulative IPC: 2.62812 (Simulation time: 0 hr 2 min 28 sec) 
Heartbeat CPU  1 instructions:   23000000 cycles:    9132179 heartbeat IPC: 3.00690 cumulative IPC: 2.51857 (Simulation time: 0 hr 2 min 28 sec) 
Heartbeat CPU  3 instructions:   25000001 cycles:    9386185 heartbeat IPC: 2.66032 cumulative IPC: 2.66349 (Simulation time: 0 hr 2 min 31 sec) 
Heartbeat CPU  2 instructions:   24000000 cycles:    9521425 heartbeat IPC: 1.39382 cumulative IPC: 2.52063 (Simulation time: 0 hr 2 min 32 sec) 
Heartbeat CPU  1 instructions:   24000000 cycles:    9547089 heartbeat IPC: 2.41016 cumulative IPC: 2.51386 (Simulation time: 0 hr 2 min 33 sec) 
Heartbeat CPU  0 instructions:   25000001 cycles:    9768927 heartbeat IPC: 1.57001 cumulative IPC: 2.55913 (Simulation time: 0 hr 2 min 36 sec) 
Heartbeat CPU  1 instructions:   25000002 cycles:    9905764 heartbeat IPC: 2.78804 cumulative IPC: 2.52378 (Simulation time: 0 hr 2 min 38 sec) 
Heartbeat CPU  2 instructions:   25000002 cycles:    9932538 heartbeat IPC: 2.43243 cumulative IPC: 2.51698 (Simulation time: 0 hr 2 min 38 sec) 
Heartbeat CPU  3 instructions:   26000001 cycles:   10005835 heartbeat IPC: 1.61381 cumulative IPC: 2.59848 (Simulation time: 0 hr 2 min 40 sec) 
Heartbeat CPU  0 instructions:   26000000 cycles:   10131113 heartbeat IPC: 2.76101 cumulative IPC: 2.56635 (Simulation time: 0 hr 2 min 41 sec) 
Heartbeat CPU  1 instructions:   26000001 cycles:   10424882 heartbeat IPC: 1.92634 cumulative IPC: 2.49403 (Simulation time: 0 hr 2 min 44 sec) 
Heartbeat CPU  2 instructions:   26000000 cycles:   10434123 heartbeat IPC: 1.99368 cumulative IPC: 2.49182 (Simulation time: 0 hr 2 min 44 sec) 
Heartbeat CPU  3 instructions:   27000002 cycles:   10648995 heartbeat IPC: 1.55482 cumulative IPC: 2.53545 (Simulation time: 0 hr 2 min 47 sec) 
Heartbeat CPU  0 instructions:   27000001 cycles:   10773066 heartbeat IPC: 1.55775 cumulative IPC: 2.50625 (Simulation time: 0 hr 2 min 48 sec) 
Heartbeat CPU  2 instructions:   27000001 cycles:   10943499 heartbeat IPC: 1.96319 cumulative IPC: 2.46722 (Simulation time: 0 hr 2 min 51 sec) 
Heartbeat CPU  1 instructions:   27000001 cycles:   11031752 heartbeat IPC: 1.64780 cumulative IPC: 2.44748 (Simulation time: 0 hr 2 min 52 sec) 
Heartbeat CPU  3 instructions:   28000000 cycles:   11263973 heartbeat IPC: 1.62607 cumulative IPC: 2.48580 (Simulation time: 0 hr 2 min 54 sec) 
Heartbeat CPU  0 instructions:   28000000 cycles:   11399706 heartbeat IPC: 1.59581 cumulative IPC: 2.45620 (Simulation time: 0 hr 2 min 56 sec) 
Heartbeat CPU  2 instructions:   28000000 cycles:   11514651 heartbeat IPC: 1.75085 cumulative IPC: 2.43168 (Simulation time: 0 hr 2 min 57 sec) 
Heartbeat CPU  1 instructions:   28000000 cycles:   11610410 heartbeat IPC: 1.72813 cumulative IPC: 2.41163 (Simulation time: 0 hr 2 min 58 sec) 
Heartbeat CPU  3 instructions:   29000001 cycles:   11767624 heartbeat IPC: 1.98550 cumulative IPC: 2.46439 (Simulation time: 0 hr 3 min 0 sec) 
Heartbeat CPU  0 instructions:   29000003 cycles:   11896719 heartbeat IPC: 2.01203 cumulative IPC: 2.43765 (Simulation time: 0 hr 3 min 2 sec) 
Heartbeat CPU  2 instructions:   29000001 cycles:   12019683 heartbeat IPC: 1.98007 cumulative IPC: 2.41271 (Simulation time: 0 hr 3 min 3 sec) 
Heartbeat CPU  1 instructions:   29000003 cycles:   12114148 heartbeat IPC: 1.98516 cumulative IPC: 2.39390 (Simulation time: 0 hr 3 min 4 sec) 
Heartbeat CPU  3 instructions:   30000000 cycles:   12299773 heartbeat IPC: 1.87917 cumulative IPC: 2.43907 (Simulation time: 0 hr 3 min 6 sec) 
Heartbeat CPU  0 instructions:   30000001 cycles:   12402720 heartbeat IPC: 1.97628 cumulative IPC: 2.41882 (Simulation time: 0 hr 3 min 8 sec) 
Heartbeat CPU  2 instructions:   30000003 cycles:   12579375 heartbeat IPC: 1.78670 cumulative IPC: 2.38486 (Simulation time: 0 hr 3 min 10 sec) 
Heartbeat CPU  1 instructions:   30000002 cycles:   12661870 heartbeat IPC: 1.82574 cumulative IPC: 2.36932 (Simulation time: 0 hr 3 min 11 sec) 
Heartbeat CPU  3 instructions:   31000000 cycles:   12982427 heartbeat IPC: 1.46487 cumulative IPC: 2.38784 (Simulation time: 0 hr 3 min 14 sec) 
Heartbeat CPU  0 instructions:   31000002 cycles:   13001017 heartbeat IPC: 1.67141 cumulative IPC: 2.38443 (Simulation time: 0 hr 3 min 14 sec) 
Heartbeat CPU  2 instructions:   31000000 cycles:   13267095 heartbeat IPC: 1.45408 cumulative IPC: 2.33661 (Simulation time: 0 hr 3 min 16 sec) 
Heartbeat CPU  1 instructions:   31000001 cycles:   13362645 heartbeat IPC: 1.42699 cumulative IPC: 2.31990 (Simulation time: 0 hr 3 min 17 sec) 
Heartbeat CPU  0 instructions:   32000000 cycles:   13630583 heartbeat IPC: 1.58839 cumulative IPC: 2.34766 (Simulation time: 0 hr 3 min 19 sec) 
Heartbeat CPU  3 instructions:   32000000 cycles:   13630628 heartbeat IPC: 1.54273 cumulative IPC: 2.34765 (Simulation time: 0 hr 3 min 19 sec) 
Heartbeat CPU  2 instructions:   32000000 cycles:   13859805 heartbeat IPC: 1.68717 cumulative IPC: 2.30883 (Simulation time: 0 hr 3 min 22 sec) 
Heartbeat CPU  1 instructions:   32000000 cycles:   13989703 heartbeat IPC: 1.59475 cumulative IPC: 2.28740 (Simulation time: 0 hr 3 min 24 sec) 
Heartbeat CPU  3 instructions:   33000000 cycles:   14090262 heartbeat IPC: 2.17564 cumulative IPC: 2.34204 (Simulation time: 0 hr 3 min 25 sec) 
Heartbeat CPU  0 instructions:   33000000 cycles:   14099667 heartbeat IPC: 2.13181 cumulative IPC: 2.34048 (Simulation time: 0 hr 3 min 25 sec) 
Heartbeat CPU  2 instructions:   33000002 cycles:   14323912 heartbeat IPC: 2.15468 cumulative IPC: 2.30384 (Simulation time: 0 hr 3 min 28 sec) 
Heartbeat CPU  1 instructions:   33000000 cycles:   14590124 heartbeat IPC: 1.66550 cumulative IPC: 2.26180 (Simulation time: 0 hr 3 min 31 sec) 
Heartbeat CPU  3 instructions:   34000002 cycles:   14623017 heartbeat IPC: 1.87704 cumulative IPC: 2.32510 (Simulation time: 0 hr 3 min 31 sec) 
Heartbeat CPU  0 instructions:   34000002 cycles:   14661287 heartbeat IPC: 1.78057 cumulative IPC: 2.31903 (Simulation time: 0 hr 3 min 32 sec) 
Heartbeat CPU  2 instructions:   34000000 cycles:   14879047 heartbeat IPC: 1.80136 cumulative IPC: 2.28509 (Simulation time: 0 hr 3 min 34 sec) 
Heartbeat CPU  0 instructions:   35000000 cycles:   15117175 heartbeat IPC: 2.19352 cumulative IPC: 2.31525 (Simulation time: 0 hr 3 min 37 sec) 
Heartbeat CPU  3 instructions:   35000002 cycles:   15153807 heartbeat IPC: 1.88398 cumulative IPC: 2.30965 (Simulation time: 0 hr 3 min 37 sec) 
Heartbeat CPU  1 instructions:   34000002 cycles:   15199717 heartbeat IPC: 1.64044 cumulative IPC: 2.23688 (Simulation time: 0 hr 3 min 38 sec) 
Heartbeat CPU  2 instructions:   35000001 cycles:   15345607 heartbeat IPC: 2.14335 cumulative IPC: 2.28078 (Simulation time: 0 hr 3 min 40 sec) 
Heartbeat CPU  0 instructions:   36000000 cycles:   15594828 heartbeat IPC: 2.09357 cumulative IPC: 2.30846 (Simulation time: 0 hr 3 min 43 sec) 
Heartbeat CPU  3 instructions:   36000000 cycles:   15644464 heartbeat IPC: 2.03808 cumulative IPC: 2.30113 (Simulation time: 0 hr 3 min 44 sec) 
Heartbeat CPU  1 instructions:   35000000 cycles:   15675055 heartbeat IPC: 2.10376 cumulative IPC: 2.23285 (Simulation time: 0 hr 3 min 44 sec) 
Heartbeat CPU  2 instructions:   36000000 cycles:   15812087 heartbeat IPC: 2.14371 cumulative IPC: 2.27674 (Simulation time: 0 hr 3 min 46 sec) 
Heartbeat CPU  0 instructions:   37000000 cycles:   16048478 heartbeat IPC: 2.20434 cumulative IPC: 2.30551 (Simulation time: 0 hr 3 min 49 sec) 
Heartbeat CPU  3 instructions:   37000003 cycles:   16107628 heartbeat IPC: 2.15907 cumulative IPC: 2.29705 (Simulation time: 0 hr 3 min 49 sec) 
Heartbeat CPU  1 instructions:   36000000 cycles:   16166511 heartbeat IPC: 2.03477 cumulative IPC: 2.22683 (Simulation time: 0 hr 3 min 50 sec) 
Heartbeat CPU  2 instructions:   37000003 cycles:   16279566 heartbeat IPC: 2.13914 cumulative IPC: 2.27279 (Simulation time: 0 hr 3 min 52 sec) 
Heartbeat CPU  0 instructions:   38000000 cycles:   16533483 heartbeat IPC: 2.06183 cumulative IPC: 2.29837 (Simulation time: 0 hr 3 min 55 sec) 
Heartbeat CPU  3 instructions:   38000003 cycles:   16556592 heartbeat IPC: 2.22735 cumulative IPC: 2.29516 (Simulation time: 0 hr 3 min 55 sec) 
Heartbeat CPU  1 instructions:   37000003 cycles:   16644717 heartbeat IPC: 2.09116 cumulative IPC: 2.22293 (Simulation time: 0 hr 3 min 56 sec) 
Heartbeat CPU  2 instructions:   38000002 cycles:   16802990 heartbeat IPC: 1.91050 cumulative IPC: 2.26150 (Simulation time: 0 hr 3 min 58 sec) 
Heartbeat CPU  3 instructions:   39000001 cycles:   16969335 heartbeat IPC: 2.42281 cumulative IPC: 2.29826 (Simulation time: 0 hr 4 min 0 sec) 
Heartbeat CPU  0 instructions:   39000002 cycles:   17016197 heartbeat IPC: 2.07162 cumulative IPC: 2.29193 (Simulation time: 0 hr 4 min 1 sec) 
Heartbeat CPU  1 instructions:   38000002 cycles:   17111642 heartbeat IPC: 2.14167 cumulative IPC: 2.22071 (Simulation time: 0 hr 4 min 2 sec) 
Heartbeat CPU  2 instructions:   39000003 cycles:   17236599 heartbeat IPC: 2.30623 cumulative IPC: 2.26263 (Simulation time: 0 hr 4 min 4 sec) 
Heartbeat CPU  3 instructions:   40000000 cycles:   17422738 heartbeat IPC: 2.20554 cumulative IPC: 2.29585 (Simulation time: 0 hr 4 min 7 sec) 
Heartbeat CPU  0 instructions:   40000000 cycles:   17492831 heartbeat IPC: 2.09804 cumulative IPC: 2.28665 (Simulation time: 0 hr 4 min 8 sec) 
Heartbeat CPU  1 instructions:   39000001 cycles:   17528694 heartbeat IPC: 2.39778 cumulative IPC: 2.22492 (Simulation time: 0 hr 4 min 8 sec) 
Heartbeat CPU  2 instructions:   40000000 cycles:   17680506 heartbeat IPC: 2.25272 cumulative IPC: 2.26238 (Simulation time: 0 hr 4 min 10 sec) 
Heartbeat CPU  3 instructions:   41000002 cycles:   17881296 heartbeat IPC: 2.18075 cumulative IPC: 2.29290 (Simulation time: 0 hr 4 min 12 sec) 
Heartbeat CPU  1 instructions:   40000000 cycles:   17973751 heartbeat IPC: 2.24690 cumulative IPC: 2.22547 (Simulation time: 0 hr 4 min 13 sec) 
Heartbeat CPU  0 instructions:   41000003 cycles:   18072829 heartbeat IPC: 1.72415 cumulative IPC: 2.26860 (Simulation time: 0 hr 4 min 15 sec) 
Heartbeat CPU  2 instructions:   41000003 cycles:   18129684 heartbeat IPC: 2.22630 cumulative IPC: 2.26148 (Simulation time: 0 hr 4 min 15 sec) 
Heartbeat CPU  3 instructions:   42000002 cycles:   18452465 heartbeat IPC: 1.75080 cumulative IPC: 2.27612 (Simulation time: 0 hr 4 min 19 sec) 
Heartbeat CPU  1 instructions:   41000003 cycles:   18462535 heartbeat IPC: 2.04590 cumulative IPC: 2.22071 (Simulation time: 0 hr 4 min 19 sec) 
Heartbeat CPU  0 instructions:   42000000 cycles:   18601043 heartbeat IPC: 1.89317 cumulative IPC: 2.25794 (Simulation time: 0 hr 4 min 21 sec) 
Heartbeat CPU  2 instructions:   42000001 cycles:   18634278 heartbeat IPC: 1.98179 cumulative IPC: 2.25391 (Simulation time: 0 hr 4 min 21 sec) 
Heartbeat CPU  3 instructions:   43000000 cycles:   18962428 heartbeat IPC: 1.96092 cumulative IPC: 2.26764 (Simulation time: 0 hr 4 min 25 sec) 
Heartbeat CPU  1 instructions:   42000003 cycles:   18978178 heartbeat IPC: 1.93933 cumulative IPC: 2.21307 (Simulation time: 0 hr 4 min 25 sec) 
Heartbeat CPU  0 instructions:   43000000 cycles:   19106400 heartbeat IPC: 1.97880 cumulative IPC: 2.25055 (Simulation time: 0 hr 4 min 26 sec) 
Heartbeat CPU  2 instructions:   43000002 cycles:   19190615 heartbeat IPC: 1.79747 cumulative IPC: 2.24068 (Simulation time: 0 hr 4 min 27 sec) 
Heartbeat CPU  3 instructions:   44000000 cycles:   19441864 heartbeat IPC: 2.08578 cumulative IPC: 2.26316 (Simulation time: 0 hr 4 min 30 sec) 
Heartbeat CPU  1 instructions:   43000003 cycles:   19543111 heartbeat IPC: 1.77012 cumulative IPC: 2.20026 (Simulation time: 0 hr 4 min 31 sec) 
Heartbeat CPU  2 instructions:   44000000 cycles:   19666276 heartbeat IPC: 2.10233 cumulative IPC: 2.23733 (Simulation time: 0 hr 4 min 32 sec) 
Heartbeat CPU  0 instructions:   44000000 cycles:   19716584 heartbeat IPC: 1.63885 cumulative IPC: 2.23162 (Simulation time: 0 hr 4 min 33 sec) 
Heartbeat CPU  1 instructions:   44000000 cycles:   20061851 heartbeat IPC: 1.92774 cumulative IPC: 2.19322 (Simulation time: 0 hr 4 min 36 sec) 
Heartbeat CPU  3 instructions:   45000000 cycles:   20160032 heartbeat IPC: 1.39243 cumulative IPC: 2.23214 (Simulation time: 0 hr 4 min 37 sec) 
Heartbeat CPU  0 instructions:   45000002 cycles:   20312757 heartbeat IPC: 1.67737 cumulative IPC: 2.21536 (Simulation time: 0 hr 4 min 38 sec) 
Heartbeat CPU  2 instructions:   45000000 cycles:   20349956 heartbeat IPC: 1.46267 cumulative IPC: 2.21131 (Simulation time: 0 hr 4 min 39 sec) 
Heartbeat CPU  3 instructions:   46000002 cycles:   20709833 heartbeat IPC: 1.81884 cumulative IPC: 2.22117 (Simulation time: 0 hr 4 min 42 sec) 
Heartbeat CPU  1 instructions:   45000002 cycles:   20725572 heartbeat IPC: 1.50666 cumulative IPC: 2.17123 (Simulation time: 0 hr 4 min 43 sec) 
Heartbeat CPU  0 instructions:   46000001 cycles:   20883383 heartbeat IPC: 1.75246 cumulative IPC: 2.20271 (Simulation time: 0 hr 4 min 44 sec) 
Heartbeat CPU  2 instructions:   46000003 cycles:   20915976 heartbeat IPC: 1.76673 cumulative IPC: 2.19928 (Simulation time: 0 hr 4 min 45 sec) 
Heartbeat CPU  1 instructions:   46000001 cycles:   21272901 heartbeat IPC: 1.82705 cumulative IPC: 2.16238 (Simulation time: 0 hr 4 min 48 sec) 
Heartbeat CPU  3 instructions:   47000002 cycles:   21356619 heartbeat IPC: 1.54611 cumulative IPC: 2.20072 (Simulation time: 0 hr 4 min 49 sec) 
Heartbeat CPU  0 instructions:   47000001 cycles:   21511690 heartbeat IPC: 1.59158 cumulative IPC: 2.18486 (Simulation time: 0 hr 4 min 50 sec) 
Heartbeat CPU  2 instructions:   47000000 cycles:   21560936 heartbeat IPC: 1.55048 cumulative IPC: 2.17987 (Simulation time: 0 hr 4 min 51 sec) 
Heartbeat CPU  1 instructions:   47000000 cycles:   21891032 heartbeat IPC: 1.61778 cumulative IPC: 2.14700 (Simulation time: 0 hr 4 min 54 sec) 
Heartbeat CPU  3 instructions:   48000000 cycles:   21894488 heartbeat IPC: 1.85919 cumulative IPC: 2.19233 (Simulation time: 0 hr 4 min 54 sec) 
Heartbeat CPU  0 instructions:   48000000 cycles:   22064427 heartbeat IPC: 1.80918 cumulative IPC: 2.17545 (Simulation time: 0 hr 4 min 56 sec) 
Heartbeat CPU  2 instructions:   48000000 cycles:   22203543 heartbeat IPC: 1.55616 cumulative IPC: 2.16182 (Simulation time: 0 hr 4 min 57 sec) 
Heartbeat CPU  3 instructions:   49000003 cycles:   22446855 heartbeat IPC: 1.81040 cumulative IPC: 2.18293 (Simulation time: 0 hr 5 min 0 sec) 
Heartbeat CPU  1 instructions:   48000000 cycles:   22451099 heartbeat IPC: 1.78550 cumulative IPC: 2.13798 (Simulation time: 0 hr 5 min 0 sec) 
Heartbeat CPU  0 instructions:   49000003 cycles:   22589212 heartbeat IPC: 1.90555 cumulative IPC: 2.16918 (Simulation time: 0 hr 5 min 2 sec) 
Heartbeat CPU  2 instructions:   49000001 cycles:   22820235 heartbeat IPC: 1.62156 cumulative IPC: 2.14722 (Simulation time: 0 hr 5 min 5 sec) 
Heartbeat CPU  3 instructions:   50000001 cycles:   22912253 heartbeat IPC: 2.14869 cumulative IPC: 2.18224 (Simulation time: 0 hr 5 min 6 sec) 
Heartbeat CPU  1 instructions:   49000001 cycles:   23064338 heartbeat IPC: 1.63069 cumulative IPC: 2.12449 (Simulation time: 0 hr 5 min 8 sec) 
Heartbeat CPU  3 instructions:   51000003 cycles:   23244152 heartbeat IPC: 3.01297 cumulative IPC: 0.04302 (Simulation time: 0 hr 5 min 10 sec) 
Heartbeat CPU  0 instructions:   50000003 cycles:   23366255 heartbeat IPC: 1.28693 cumulative IPC: 2.13984 (Simulation time: 0 hr 5 min 11 sec) 
Heartbeat CPU  2 instructions:   50000003 cycles:   23536767 heartbeat IPC: 1.39561 cumulative IPC: 2.12434 (Simulation time: 0 hr 5 min 13 sec) 
Heartbeat CPU  3 instructions:   52000000 cycles:   23581933 heartbeat IPC: 2.96049 cumulative IPC: 0.08481 (Simulation time: 0 hr 5 min 13 sec) 
Heartbeat CPU  1 instructions:   50000002 cycles:   23650141 heartbeat IPC: 1.70706 cumulative IPC: 2.11415 (Simulation time: 0 hr 5 min 14 sec) 

Warmup complete CPU  0 instructions:   50333428 cycles:   23650140 (Simulation time: 0 hr 5 min 14 sec) 
Warmup complete CPU  1 instructions:   50000002 cycles:   23650141 (Simulation time: 0 hr 5 min 14 sec) 
Warmup complete CPU  2 instructions:   50123769 cycles:   23650140 (Simulation time: 0 hr 5 min 14 sec) 
Warmup complete CPU  3 instructions:   52200201 cycles:   23650141 (Simulation time: 0 hr 5 min 14 sec) 

Heartbeat CPU  2 instructions:   51000000 cycles:   26628821 heartbeat IPC: 0.32341 cumulative IPC: 0.29417 (Simulation time: 0 hr 5 min 22 sec) 
Heartbeat CPU  3 instructions:   53000001 cycles:   27059567 heartbeat IPC: 0.28755 cumulative IPC: 0.23458 (Simulation time: 0 hr 5 min 23 sec) 
Heartbeat CPU  1 instructions:   51000001 cycles:   27161377 heartbeat IPC: 0.28480 cumulative IPC: 0.28480 (Simulation time: 0 hr 5 min 23 sec) 
Heartbeat CPU  0 instructions:   51000000 cycles:   27864693 heartbeat IPC: 0.22230 cumulative IPC: 0.15816 (Simulation time: 0 hr 5 min 25 sec) 
Heartbeat CPU  2 instructions:   52000000 cycles:   29230681 heartbeat IPC: 0.38434 cumulative IPC: 0.33621 (Simulation time: 0 hr 5 min 29 sec) 
Heartbeat CPU  3 instructions:   54000001 cycles:   30194030 heartbeat IPC: 0.31903 cumulative IPC: 0.27504 (Simulation time: 0 hr 5 min 31 sec) 
Heartbeat CPU  1 instructions:   52000000 cycles:   31737044 heartbeat IPC: 0.21855 cumulative IPC: 0.24731 (Simulation time: 0 hr 5 min 35 sec) 
Heartbeat CPU  2 instructions:   53000000 cycles:   32016726 heartbeat IPC: 0.35893 cumulative IPC: 0.34378 (Simulation time: 0 hr 5 min 36 sec) 
Heartbeat CPU  3 instructions:   55000003 cycles:   33010142 heartbeat IPC: 0.35510 cumulative IPC: 0.29912 (Simulation time: 0 hr 5 min 38 sec) 
Heartbeat CPU  0 instructions:   52000000 cycles:   33878911 heartbeat IPC: 0.16627 cumulative IPC: 0.16293 (Simulation time: 0 hr 5 min 40 sec) 
Heartbeat CPU  2 instructions:   54000000 cycles:   35072899 heartbeat IPC: 0.32721 cumulative IPC: 0.33934 (Simulation time: 0 hr 5 min 44 sec) 
Heartbeat CPU  1 instructions:   53000001 cycles:   36041158 heartbeat IPC: 0.23234 cumulative IPC: 0.24211 (Simulation time: 0 hr 5 min 47 sec) 
Heartbeat CPU  3 instructions:   56000000 cycles:   36322926 heartbeat IPC: 0.30186 cumulative IPC: 0.29984 (Simulation time: 0 hr 5 min 47 sec) 
Heartbeat CPU  0 instructions:   53000002 cycles:   37203922 heartbeat IPC: 0.30075 cumulative IPC: 0.19674 (Simulation time: 0 hr 5 min 50 sec) 
Heartbeat CPU  2 instructions:   55000000 cycles:   38138630 heartbeat IPC: 0.32619 cumulative IPC: 0.33656 (Simulation time: 0 hr 5 min 53 sec) 
Heartbeat CPU  1 instructions:   54000003 cycles:   38970266 heartbeat IPC: 0.34140 cumulative IPC: 0.26109 (Simulation time: 0 hr 5 min 55 sec) 
Heartbeat CPU  3 instructions:   57000003 cycles:   39493515 heartbeat IPC: 0.31540 cumulative IPC: 0.30295 (Simulation time: 0 hr 5 min 57 sec) 
Heartbeat CPU  0 instructions:   54000003 cycles:   40295001 heartbeat IPC: 0.32351 cumulative IPC: 0.22028 (Simulation time: 0 hr 6 min 0 sec) 
Heartbeat CPU  2 instructions:   56000000 cycles:   40802697 heartbeat IPC: 0.37537 cumulative IPC: 0.34259 (Simulation time: 0 hr 6 min 1 sec) 
Heartbeat CPU  1 instructions:   55000003 cycles:   42162376 heartbeat IPC: 0.31327 cumulative IPC: 0.27009 (Simulation time: 0 hr 6 min 6 sec) 
Heartbeat CPU  3 instructions:   58000001 cycles:   42694233 heartbeat IPC: 0.31243 cumulative IPC: 0.30455 (Simulation time: 0 hr 6 min 7 sec) 
Heartbeat CPU  2 instructions:   57000002 cycles:   43470711 heartbeat IPC: 0.37481 cumulative IPC: 0.34692 (Simulation time: 0 hr 6 min 10 sec) 
Heartbeat CPU  0 instructions:   55000003 cycles:   43543501 heartbeat IPC: 0.30783 cumulative IPC: 0.23458 (Simulation time: 0 hr 6 min 10 sec) 
Heartbeat CPU  1 instructions:   56000000 cycles:   45128143 heartbeat IPC: 0.33718 cumulative IPC: 0.27936 (Simulation time: 0 hr 6 min 15 sec) 
Heartbeat CPU  3 instructions:   59000000 cycles:   45256072 heartbeat IPC: 0.39034 cumulative IPC: 0.31472 (Simulation time: 0 hr 6 min 15 sec) 
Heartbeat CPU  0 instructions:   56000000 cycles:   46049193 heartbeat IPC: 0.39909 cumulative IPC: 0.25298 (Simulation time: 0 hr 6 min 18 sec) 
Heartbeat CPU  2 instructions:   58000002 cycles:   46214724 heartbeat IPC: 0.36443 cumulative IPC: 0.34905 (Simulation time: 0 hr 6 min 19 sec) 
Heartbeat CPU  3 instructions:   60000000 cycles:   47857787 heartbeat IPC: 0.38436 cumulative IPC: 0.32220 (Simulation time: 0 hr 6 min 24 sec) 
Heartbeat CPU  1 instructions:   57000000 cycles:   47945253 heartbeat IPC: 0.35497 cumulative IPC: 0.28812 (Simulation time: 0 hr 6 min 25 sec) 
Heartbeat CPU  0 instructions:   57000003 cycles:   48813819 heartbeat IPC: 0.36171 cumulative IPC: 0.26493 (Simulation time: 0 hr 6 min 27 sec) 
Heartbeat CPU  2 instructions:   59000003 cycles:   48894129 heartbeat IPC: 0.37322 cumulative IPC: 0.35162 (Simulation time: 0 hr 6 min 28 sec) 
Heartbeat CPU  1 instructions:   58000003 cycles:   50276557 heartbeat IPC: 0.42895 cumulative IPC: 0.30045 (Simulation time: 0 hr 6 min 33 sec) 
Heartbeat CPU  3 instructions:   61000001 cycles:   50452039 heartbeat IPC: 0.38547 cumulative IPC: 0.32833 (Simulation time: 0 hr 6 min 33 sec) 
Heartbeat CPU  0 instructions:   58000003 cycles:   51463030 heartbeat IPC: 0.37747 cumulative IPC: 0.27565 (Simulation time: 0 hr 6 min 36 sec) 
Heartbeat CPU  2 instructions:   60000000 cycles:   51948424 heartbeat IPC: 0.32741 cumulative IPC: 0.34900 (Simulation time: 0 hr 6 min 38 sec) 
Heartbeat CPU  3 instructions:   62000002 cycles:   53083258 heartbeat IPC: 0.38005 cumulative IPC: 0.33295 (Simulation time: 0 hr 6 min 42 sec) 
Heartbeat CPU  1 instructions:   59000001 cycles:   53346795 heartbeat IPC: 0.32571 cumulative IPC: 0.30306 (Simulation time: 0 hr 6 min 42 sec) 
Heartbeat CPU  0 instructions:   59000002 cycles:   54189098 heartbeat IPC: 0.36683 cumulative IPC: 0.28379 (Simulation time: 0 hr 6 min 45 sec) 
Heartbeat CPU  2 instructions:   61000000 cycles:   54807254 heartbeat IPC: 0.34979 cumulative IPC: 0.34908 (Simulation time: 0 hr 6 min 47 sec) 
Heartbeat CPU  3 instructions:   63000000 cycles:   56006963 heartbeat IPC: 0.34203 cumulative IPC: 0.33377 (Simulation time: 0 hr 6 min 51 sec) 
Heartbeat CPU  1 instructions:   60000000 cycles:   56232317 heartbeat IPC: 0.34656 cumulative IPC: 0.30692 (Simulation time: 0 hr 6 min 52 sec) 
Heartbeat CPU  0 instructions:   60000000 cycles:   56978024 heartbeat IPC: 0.35856 cumulative IPC: 0.29004 (Simulation time: 0 hr 6 min 54 sec) 
Heartbeat CPU  2 instructions:   62000000 cycles:   58197257 heartbeat IPC: 0.29498 cumulative IPC: 0.34377 (Simulation time: 0 hr 6 min 58 sec) 
Heartbeat CPU  3 instructions:   64000000 cycles:   59095980 heartbeat IPC: 0.32373 cumulative IPC: 0.33290 (Simulation time: 0 hr 7 min 1 sec) 
Heartbeat CPU  1 instructions:   61000000 cycles:   59240782 heartbeat IPC: 0.33240 cumulative IPC: 0.30907 (Simulation time: 0 hr 7 min 1 sec) 
Heartbeat CPU  0 instructions:   61000001 cycles:   59713749 heartbeat IPC: 0.36553 cumulative IPC: 0.29577 (Simulation time: 0 hr 7 min 3 sec) 
Heartbeat CPU  2 instructions:   63000002 cycles:   60518295 heartbeat IPC: 0.43084 cumulative IPC: 0.34925 (Simulation time: 0 hr 7 min 6 sec) 
Heartbeat CPU  3 instructions:   65000002 cycles:   61825040 heartbeat IPC: 0.36643 cumulative IPC: 0.33529 (Simulation time: 0 hr 7 min 10 sec) 
Heartbeat CPU  1 instructions:   62000000 cycles:   61947504 heartbeat IPC: 0.36945 cumulative IPC: 0.31334 (Simulation time: 0 hr 7 min 11 sec) 
Heartbeat CPU  0 instructions:   62000000 cycles:   62448348 heartbeat IPC: 0.36568 cumulative IPC: 0.30070 (Simulation time: 0 hr 7 min 12 sec) 
Heartbeat CPU  2 instructions:   64000000 cycles:   63229294 heartbeat IPC: 0.36887 cumulative IPC: 0.35059 (Simulation time: 0 hr 7 min 15 sec) 
Heartbeat CPU  3 instructions:   66000001 cycles:   64612662 heartbeat IPC: 0.35873 cumulative IPC: 0.33689 (Simulation time: 0 hr 7 min 19 sec) 
Heartbeat CPU  1 instructions:   63000003 cycles:   65018940 heartbeat IPC: 0.32558 cumulative IPC: 0.31425 (Simulation time: 0 hr 7 min 20 sec) 
Heartbeat CPU  0 instructions:   63000001 cycles:   65613408 heartbeat IPC: 0.31595 cumulative IPC: 0.30185 (Simulation time: 0 hr 7 min 22 sec) 
Heartbeat CPU  2 instructions:   65000002 cycles:   66616245 heartbeat IPC: 0.29525 cumulative IPC: 0.34623 (Simulation time: 0 hr 7 min 27 sec) 
Heartbeat CPU  1 instructions:   64000000 cycles:   67034539 heartbeat IPC: 0.49613 cumulative IPC: 0.32270 (Simulation time: 0 hr 7 min 28 sec) 
Heartbeat CPU  0 instructions:   64000000 cycles:   67358675 heartbeat IPC: 0.57298 cumulative IPC: 0.31268 (Simulation time: 0 hr 7 min 29 sec) 
Heartbeat CPU  3 instructions:   67000003 cycles:   67470044 heartbeat IPC: 0.34997 cumulative IPC: 0.33774 (Simulation time: 0 hr 7 min 30 sec) 
Heartbeat CPU  2 instructions:   66000003 cycles:   68910226 heartbeat IPC: 0.43592 cumulative IPC: 0.35078 (Simulation time: 0 hr 7 min 35 sec) 
Heartbeat CPU  1 instructions:   65000001 cycles:   69696897 heartbeat IPC: 0.37561 cumulative IPC: 0.32576 (Simulation time: 0 hr 7 min 37 sec) 
Heartbeat CPU  3 instructions:   68000000 cycles:   70182626 heartbeat IPC: 0.36865 cumulative IPC: 0.33954 (Simulation time: 0 hr 7 min 39 sec) 
Heartbeat CPU  0 instructions:   65000000 cycles:   70447400 heartbeat IPC: 0.32376 cumulative IPC: 0.31341 (Simulation time: 0 hr 7 min 40 sec) 
Heartbeat CPU  2 instructions:   67000002 cycles:   71774418 heartbeat IPC: 0.34914 cumulative IPC: 0.35068 (Simulation time: 0 hr 7 min 44 sec) 
Heartbeat CPU  1 instructions:   66000002 cycles:   72375388 heartbeat IPC: 0.37334 cumulative IPC: 0.32837 (Simulation time: 0 hr 7 min 46 sec) 
Heartbeat CPU  0 instructions:   66000002 cycles:   72697666 heartbeat IPC: 0.44439 cumulative IPC: 0.31942 (Simulation time: 0 hr 7 min 47 sec) 
Heartbeat CPU  3 instructions:   69000001 cycles:   73294730 heartbeat IPC: 0.32133 cumulative IPC: 0.33840 (Simulation time: 0 hr 7 min 49 sec) 
Heartbeat CPU  2 instructions:   68000000 cycles:   74338248 heartbeat IPC: 0.39004 cumulative IPC: 0.35267 (Simulation time: 0 hr 7 min 53 sec) 
Heartbeat CPU  1 instructions:   67000002 cycles:   75093168 heartbeat IPC: 0.36795 cumulative IPC: 0.33046 (Simulation time: 0 hr 7 min 55 sec) 
Heartbeat CPU  0 instructions:   67000000 cycles:   75464534 heartbeat IPC: 0.36142 cumulative IPC: 0.32166 (Simulation time: 0 hr 7 min 57 sec) 
Heartbeat CPU  3 instructions:   70000002 cycles:   75887478 heartbeat IPC: 0.38569 cumulative IPC: 0.34075 (Simulation time: 0 hr 7 min 58 sec) 
Heartbeat CPU  1 instructions:   68000000 cycles:   77237282 heartbeat IPC: 0.46639 cumulative IPC: 0.33590 (Simulation time: 0 hr 8 min 3 sec) 
Heartbeat CPU  2 instructions:   69000000 cycles:   77268751 heartbeat IPC: 0.34124 cumulative IPC: 0.35205 (Simulation time: 0 hr 8 min 3 sec) 
Heartbeat CPU  0 instructions:   68000000 cycles:   78004072 heartbeat IPC: 0.39377 cumulative IPC: 0.32503 (Simulation time: 0 hr 8 min 5 sec) 
Heartbeat CPU  3 instructions:   71000000 cycles:   78448581 heartbeat IPC: 0.39046 cumulative IPC: 0.34307 (Simulation time: 0 hr 8 min 7 sec) 
Heartbeat CPU  1 instructions:   69000000 cycles:   80299983 heartbeat IPC: 0.32651 cumulative IPC: 0.33539 (Simulation time: 0 hr 8 min 13 sec) 
Heartbeat CPU  3 instructions:   72000000 cycles:   80951221 heartbeat IPC: 0.39958 cumulative IPC: 0.34554 (Simulation time: 0 hr 8 min 15 sec) 
Heartbeat CPU  0 instructions:   69000002 cycles:   81084534 heartbeat IPC: 0.32463 cumulative IPC: 0.32501 (Simulation time: 0 hr 8 min 15 sec) 
Heartbeat CPU  2 instructions:   70000001 cycles:   81121701 heartbeat IPC: 0.25954 cumulative IPC: 0.34584 (Simulation time: 0 hr 8 min 15 sec) 
Heartbeat CPU  1 instructions:   70000003 cycles:   83048070 heartbeat IPC: 0.36389 cumulative IPC: 0.33671 (Simulation time: 0 hr 8 min 22 sec) 
Heartbeat CPU  0 instructions:   70000000 cycles:   83434582 heartbeat IPC: 0.42552 cumulative IPC: 0.32896 (Simulation time: 0 hr 8 min 23 sec) 
Heartbeat CPU  3 instructions:   73000003 cycles:   83504922 heartbeat IPC: 0.39159 cumulative IPC: 0.34750 (Simulation time: 0 hr 8 min 24 sec) 
Heartbeat CPU  2 instructions:   71000002 cycles:   84143856 heartbeat IPC: 0.33089 cumulative IPC: 0.34510 (Simulation time: 0 hr 8 min 26 sec) 
Heartbeat CPU  1 instructions:   71000000 cycles:   85354372 heartbeat IPC: 0.43359 cumulative IPC: 0.34033 (Simulation time: 0 hr 8 min 30 sec) 
Heartbeat CPU  0 instructions:   71000001 cycles:   86027237 heartbeat IPC: 0.38571 cumulative IPC: 0.33132 (Simulation time: 0 hr 8 min 32 sec) 
Heartbeat CPU  3 instructions:   74000000 cycles:   86854589 heartbeat IPC: 0.29854 cumulative IPC: 0.34491 (Simulation time: 0 hr 8 min 35 sec) 
Heartbeat CPU  2 instructions:   72000000 cycles:   87028128 heartbeat IPC: 0.34671 cumulative IPC: 0.34517 (Simulation time: 0 hr 8 min 36 sec) 
Heartbeat CPU  0 instructions:   72000000 cycles:   87893595 heartbeat IPC: 0.53580 cumulative IPC: 0.33726 (Simulation time: 0 hr 8 min 39 sec) 
Heartbeat CPU  1 instructions:   72000000 cycles:   88037143 heartbeat IPC: 0.37275 cumulative IPC: 0.34168 (Simulation time: 0 hr 8 min 40 sec) 
Heartbeat CPU  3 instructions:   75000002 cycles:   89399902 heartbeat IPC: 0.39288 cumulative IPC: 0.34677 (Simulation time: 0 hr 8 min 44 sec) 
Heartbeat CPU  2 instructions:   73000002 cycles:   89863144 heartbeat IPC: 0.35273 cumulative IPC: 0.34549 (Simulation time: 0 hr 8 min 45 sec) 
Heartbeat CPU  1 instructions:   73000001 cycles:   90679020 heartbeat IPC: 0.37852 cumulative IPC: 0.34314 (Simulation time: 0 hr 8 min 48 sec) 
Heartbeat CPU  0 instructions:   73000002 cycles:   91271090 heartbeat IPC: 0.29608 cumulative IPC: 0.33520 (Simulation time: 0 hr 8 min 50 sec) 
Heartbeat CPU  3 instructions:   76000000 cycles:   92209596 heartbeat IPC: 0.35591 cumulative IPC: 0.34714 (Simulation time: 0 hr 8 min 53 sec) 
Heartbeat CPU  2 instructions:   74000003 cycles:   92857763 heartbeat IPC: 0.33393 cumulative IPC: 0.34499 (Simulation time: 0 hr 8 min 55 sec) 
Heartbeat CPU  1 instructions:   74000003 cycles:   93661734 heartbeat IPC: 0.33527 cumulative IPC: 0.34280 (Simulation time: 0 hr 8 min 57 sec) 
Heartbeat CPU  0 instructions:   74000002 cycles:   94009007 heartbeat IPC: 0.36524 cumulative IPC: 0.33637 (Simulation time: 0 hr 8 min 58 sec) 
Heartbeat CPU  3 instructions:   77000000 cycles:   95496150 heartbeat IPC: 0.30427 cumulative IPC: 0.34518 (Simulation time: 0 hr 9 min 3 sec) 
Heartbeat CPU  2 instructions:   75000000 cycles:   95546945 heartbeat IPC: 0.37186 cumulative IPC: 0.34600 (Simulation time: 0 hr 9 min 3 sec) 
Heartbeat CPU  1 instructions:   75000002 cycles:   96241847 heartbeat IPC: 0.38758 cumulative IPC: 0.34439 (Simulation time: 0 hr 9 min 6 sec) 
Heartbeat CPU  0 instructions:   75000002 cycles:   96613870 heartbeat IPC: 0.38390 cumulative IPC: 0.33807 (Simulation time: 0 hr 9 min 7 sec) 
Heartbeat CPU  2 instructions:   76000000 cycles:   98255055 heartbeat IPC: 0.36926 cumulative IPC: 0.34684 (Simulation time: 0 hr 9 min 12 sec) 
Heartbeat CPU  3 instructions:   78000003 cycles:   98533167 heartbeat IPC: 0.32927 cumulative IPC: 0.34453 (Simulation time: 0 hr 9 min 13 sec) 
Heartbeat CPU  1 instructions:   76000000 cycles:   99158735 heartbeat IPC: 0.34283 cumulative IPC: 0.34433 (Simulation time: 0 hr 9 min 15 sec) 
Heartbeat CPU  0 instructions:   76000000 cycles:   99234932 heartbeat IPC: 0.38152 cumulative IPC: 0.33957 (Simulation time: 0 hr 9 min 16 sec) 
Heartbeat CPU  2 instructions:   77000001 cycles:  100513787 heartbeat IPC: 0.44273 cumulative IPC: 0.34966 (Simulation time: 0 hr 9 min 20 sec) 
Heartbeat CPU  3 instructions:   79000000 cycles:  101161303 heartbeat IPC: 0.38050 cumulative IPC: 0.34575 (Simulation time: 0 hr 9 min 23 sec) 
Heartbeat CPU  0 instructions:   77000001 cycles:  101753693 heartbeat IPC: 0.39702 cumulative IPC: 0.34143 (Simulation time: 0 hr 9 min 25 sec) 
Heartbeat CPU  1 instructions:   77000003 cycles:  102249989 heartbeat IPC: 0.32349 cumulative IPC: 0.34351 (Simulation time: 0 hr 9 min 27 sec) 
Heartbeat CPU  2 instructions:   78000003 cycles:  102493576 heartbeat IPC: 0.50511 cumulative IPC: 0.35356 (Simulation time: 0 hr 9 min 28 sec) 
Heartbeat CPU  0 instructions:   78000002 cycles:  103683742 heartbeat IPC: 0.51812 cumulative IPC: 0.34569 (Simulation time: 0 hr 9 min 32 sec) 
Heartbeat CPU  3 instructions:   80000000 cycles:  103848832 heartbeat IPC: 0.37209 cumulative IPC: 0.34664 (Simulation time: 0 hr 9 min 33 sec) 
Heartbeat CPU  1 instructions:   78000001 cycles:  103980249 heartbeat IPC: 0.57795 cumulative IPC: 0.34856 (Simulation time: 0 hr 9 min 33 sec) 
Heartbeat CPU  0 instructions:   79000000 cycles:  105382769 heartbeat IPC: 0.58857 cumulative IPC: 0.35074 (Simulation time: 0 hr 9 min 38 sec) 
Heartbeat CPU  2 instructions:   79000003 cycles:  105437035 heartbeat IPC: 0.33974 cumulative IPC: 0.35307 (Simulation time: 0 hr 9 min 39 sec) 
Heartbeat CPU  3 instructions:   81000002 cycles:  106395461 heartbeat IPC: 0.39268 cumulative IPC: 0.34805 (Simulation time: 0 hr 9 min 42 sec) 
Heartbeat CPU  1 instructions:   79000000 cycles:  106514044 heartbeat IPC: 0.39466 cumulative IPC: 0.34997 (Simulation time: 0 hr 9 min 43 sec) 
Heartbeat CPU  0 instructions:   80000000 cycles:  107827820 heartbeat IPC: 0.40899 cumulative IPC: 0.35243 (Simulation time: 0 hr 9 min 47 sec) 
Heartbeat CPU  2 instructions:   80000000 cycles:  107964426 heartbeat IPC: 0.39566 cumulative IPC: 0.35434 (Simulation time: 0 hr 9 min 48 sec) 
Heartbeat CPU  1 instructions:   80000000 cycles:  109418121 heartbeat IPC: 0.34434 cumulative IPC: 0.34978 (Simulation time: 0 hr 9 min 52 sec) 
Heartbeat CPU  3 instructions:   82000003 cycles:  109521102 heartbeat IPC: 0.31993 cumulative IPC: 0.34703 (Simulation time: 0 hr 9 min 53 sec) 
Heartbeat CPU  2 instructions:   81000003 cycles:  110715730 heartbeat IPC: 0.36347 cumulative IPC: 0.35463 (Simulation time: 0 hr 9 min 56 sec) 
Heartbeat CPU  0 instructions:   81000001 cycles:  111563188 heartbeat IPC: 0.26771 cumulative IPC: 0.34883 (Simulation time: 0 hr 9 min 59 sec) 
Heartbeat CPU  1 instructions:   81000000 cycles:  112061947 heartbeat IPC: 0.37824 cumulative IPC: 0.35063 (Simulation time: 0 hr 10 min 1 sec) 
Heartbeat CPU  3 instructions:   83000000 cycles:  112487738 heartbeat IPC: 0.33708 cumulative IPC: 0.34670 (Simulation time: 0 hr 10 min 2 sec) 
Heartbeat CPU  2 instructions:   82000000 cycles:  112901278 heartbeat IPC: 0.45755 cumulative IPC: 0.35715 (Simulation time: 0 hr 10 min 4 sec) 
Heartbeat CPU  1 instructions:   82000002 cycles:  114788766 heartbeat IPC: 0.36673 cumulative IPC: 0.35111 (Simulation time: 0 hr 10 min 10 sec) 
Heartbeat CPU  3 instructions:   84000000 cycles:  115152973 heartbeat IPC: 0.37520 cumulative IPC: 0.34753 (Simulation time: 0 hr 10 min 11 sec) 
Heartbeat CPU  0 instructions:   82000001 cycles:  115320946 heartbeat IPC: 0.26612 cumulative IPC: 0.34544 (Simulation time: 0 hr 10 min 11 sec) 
Heartbeat CPU  2 instructions:   83000003 cycles:  115955952 heartbeat IPC: 0.32737 cumulative IPC: 0.35617 (Simulation time: 0 hr 10 min 13 sec) 
Heartbeat CPU  0 instructions:   83000001 cycles:  117101984 heartbeat IPC: 0.56147 cumulative IPC: 0.34956 (Simulation time: 0 hr 10 min 18 sec) 
Heartbeat CPU  1 instructions:   83000003 cycles:  117475231 heartbeat IPC: 0.37224 cumulative IPC: 0.35172 (Simulation time: 0 hr 10 min 19 sec) 
Heartbeat CPU  2 instructions:   84000000 cycles:  118123700 heartbeat IPC: 0.46131 cumulative IPC: 0.35858 (Simulation time: 0 hr 10 min 21 sec) 
Heartbeat CPU  3 instructions:   85000001 cycles:  118453298 heartbeat IPC: 0.30300 cumulative IPC: 0.34598 (Simulation time: 0 hr 10 min 22 sec) 
Heartbeat CPU  0 instructions:   84000000 cycles:  119910473 heartbeat IPC: 0.35606 cumulative IPC: 0.34975 (Simulation time: 0 hr 10 min 27 sec) 
Heartbeat CPU  1 instructions:   84000000 cycles:  120289069 heartbeat IPC: 0.35539 cumulative IPC: 0.35183 (Simulation time: 0 hr 10 min 28 sec) 
Heartbeat CPU  2 instructions:   85000003 cycles:  121173804 heartbeat IPC: 0.32786 cumulative IPC: 0.35762 (Simulation time: 0 hr 10 min 31 sec) 
Heartbeat CPU  0 instructions:   85000001 cycles:  121532836 heartbeat IPC: 0.61639 cumulative IPC: 0.35416 (Simulation time: 0 hr 10 min 32 sec) 
Heartbeat CPU  3 instructions:   86000001 cycles:  121882335 heartbeat IPC: 0.29163 cumulative IPC: 0.34408 (Simulation time: 0 hr 10 min 33 sec) 
Heartbeat CPU  1 instructions:   85000002 cycles:  123289296 heartbeat IPC: 0.33331 cumulative IPC: 0.35127 (Simulation time: 0 hr 10 min 38 sec) 
Heartbeat CPU  0 instructions:   86000001 cycles:  123690890 heartbeat IPC: 0.46338 cumulative IPC: 0.35652 (Simulation time: 0 hr 10 min 39 sec) 
Heartbeat CPU  2 instructions:   86000003 cycles:  124495749 heartbeat IPC: 0.30103 cumulative IPC: 0.35575 (Simulation time: 0 hr 10 min 42 sec) 
Heartbeat CPU  3 instructions:   87000003 cycles:  124971334 heartbeat IPC: 0.32373 cumulative IPC: 0.34346 (Simulation time: 0 hr 10 min 43 sec) 
Heartbeat CPU  1 instructions:   86000000 cycles:  126228881 heartbeat IPC: 0.34018 cumulative IPC: 0.35095 (Simulation time: 0 hr 10 min 47 sec) 
Heartbeat CPU  0 instructions:   87000000 cycles:  127131055 heartbeat IPC: 0.29068 cumulative IPC: 0.35433 (Simulation time: 0 hr 10 min 50 sec) 
Heartbeat CPU  2 instructions:   87000002 cycles:  127139111 heartbeat IPC: 0.37831 cumulative IPC: 0.35633 (Simulation time: 0 hr 10 min 50 sec) 
Heartbeat CPU  3 instructions:   88000000 cycles:  127758782 heartbeat IPC: 0.35875 cumulative IPC: 0.34387 (Simulation time: 0 hr 10 min 53 sec) 
Heartbeat CPU  1 instructions:   87000002 cycles:  128802349 heartbeat IPC: 0.38858 cumulative IPC: 0.35187 (Simulation time: 0 hr 10 min 56 sec) 
Heartbeat CPU  2 instructions:   88000000 cycles:  129654566 heartbeat IPC: 0.39754 cumulative IPC: 0.35731 (Simulation time: 0 hr 10 min 59 sec) 
Heartbeat CPU  0 instructions:   88000000 cycles:  129655610 heartbeat IPC: 0.39611 cumulative IPC: 0.35533 (Simulation time: 0 hr 10 min 59 sec) 
Heartbeat CPU  3 instructions:   89000002 cycles:  130482670 heartbeat IPC: 0.36712 cumulative IPC: 0.34446 (Simulation time: 0 hr 11 min 2 sec) 
Heartbeat CPU  1 instructions:   88000000 cycles:  131392450 heartbeat IPC: 0.38608 cumulative IPC: 0.35269 (Simulation time: 0 hr 11 min 5 sec) 
Heartbeat CPU  0 instructions:   89000003 cycles:  131441060 heartbeat IPC: 0.56008 cumulative IPC: 0.35872 (Simulation time: 0 hr 11 min 5 sec) 
Heartbeat CPU  2 instructions:   89000003 cycles:  132319314 heartbeat IPC: 0.37527 cumulative IPC: 0.35775 (Simulation time: 0 hr 11 min 9 sec) 
Heartbeat CPU  3 instructions:   90000000 cycles:  133221019 heartbeat IPC: 0.36518 cumulative IPC: 0.34498 (Simulation time: 0 hr 11 min 12 sec) 
Heartbeat CPU  1 instructions:   89000001 cycles:  133884531 heartbeat IPC: 0.40127 cumulative IPC: 0.35379 (Simulation time: 0 hr 11 min 14 sec) 
Heartbeat CPU  0 instructions:   90000003 cycles:  134080590 heartbeat IPC: 0.37886 cumulative IPC: 0.35920 (Simulation time: 0 hr 11 min 15 sec) 
Heartbeat CPU  2 instructions:   90000000 cycles:  134996275 heartbeat IPC: 0.37356 cumulative IPC: 0.35813 (Simulation time: 0 hr 11 min 18 sec) 
Heartbeat CPU  1 instructions:   90000002 cycles:  136554136 heartbeat IPC: 0.37459 cumulative IPC: 0.35428 (Simulation time: 0 hr 11 min 23 sec) 
Heartbeat CPU  3 instructions:   91000001 cycles:  136578502 heartbeat IPC: 0.29784 cumulative IPC: 0.34358 (Simulation time: 0 hr 11 min 23 sec) 
Heartbeat CPU  0 instructions:   91000001 cycles:  136790570 heartbeat IPC: 0.36901 cumulative IPC: 0.35943 (Simulation time: 0 hr 11 min 24 sec) 
Heartbeat CPU  2 instructions:   91000002 cycles:  137751483 heartbeat IPC: 0.36295 cumulative IPC: 0.35824 (Simulation time: 0 hr 11 min 27 sec) 
Heartbeat CPU  0 instructions:   92000000 cycles:  138438958 heartbeat IPC: 0.60665 cumulative IPC: 0.36298 (Simulation time: 0 hr 11 min 30 sec) 
Heartbeat CPU  1 instructions:   91000001 cycles:  139201154 heartbeat IPC: 0.37778 cumulative IPC: 0.35482 (Simulation time: 0 hr 11 min 32 sec) 
Heartbeat CPU  2 instructions:   92000000 cycles:  139347412 heartbeat IPC: 0.62659 cumulative IPC: 0.36195 (Simulation time: 0 hr 11 min 32 sec) 
Heartbeat CPU  3 instructions:   92000000 cycles:  140993056 heartbeat IPC: 0.22652 cumulative IPC: 0.33918 (Simulation time: 0 hr 11 min 38 sec) 
Heartbeat CPU  0 instructions:   93000002 cycles:  141146895 heartbeat IPC: 0.36929 cumulative IPC: 0.36313 (Simulation time: 0 hr 11 min 38 sec) 
Heartbeat CPU  1 instructions:   92000000 cycles:  141963131 heartbeat IPC: 0.36206 cumulative IPC: 0.35499 (Simulation time: 0 hr 11 min 41 sec) 
Heartbeat CPU  2 instructions:   93000000 cycles:  142095455 heartbeat IPC: 0.36390 cumulative IPC: 0.36199 (Simulation time: 0 hr 11 min 41 sec) 
Heartbeat CPU  3 instructions:   93000003 cycles:  143748387 heartbeat IPC: 0.36293 cumulative IPC: 0.33972 (Simulation time: 0 hr 11 min 47 sec) 
Heartbeat CPU  0 instructions:   94000002 cycles:  144449516 heartbeat IPC: 0.30279 cumulative IPC: 0.36148 (Simulation time: 0 hr 11 min 49 sec) 
Heartbeat CPU  1 instructions:   93000002 cycles:  144661099 heartbeat IPC: 0.37065 cumulative IPC: 0.35534 (Simulation time: 0 hr 11 min 50 sec) 
Heartbeat CPU  2 instructions:   94000002 cycles:  145003155 heartbeat IPC: 0.34392 cumulative IPC: 0.36156 (Simulation time: 0 hr 11 min 51 sec) 
Heartbeat CPU  3 instructions:   94000001 cycles:  146698783 heartbeat IPC: 0.33894 cumulative IPC: 0.33970 (Simulation time: 0 hr 11 min 56 sec) 
Heartbeat CPU  0 instructions:   95000002 cycles:  147286375 heartbeat IPC: 0.35250 cumulative IPC: 0.36127 (Simulation time: 0 hr 11 min 58 sec) 
Heartbeat CPU  1 instructions:   94000000 cycles:  147429290 heartbeat IPC: 0.36125 cumulative IPC: 0.35547 (Simulation time: 0 hr 11 min 58 sec) 
Heartbeat CPU  2 instructions:   95000002 cycles:  148080703 heartbeat IPC: 0.32493 cumulative IPC: 0.36065 (Simulation time: 0 hr 12 min 0 sec) 
Heartbeat CPU  1 instructions:   95000002 cycles:  149780651 heartbeat IPC: 0.42529 cumulative IPC: 0.35677 (Simulation time: 0 hr 12 min 6 sec) 
Heartbeat CPU  3 instructions:   95000000 cycles:  149822157 heartbeat IPC: 0.32017 cumulative IPC: 0.33922 (Simulation time: 0 hr 12 min 6 sec) 
Heartbeat CPU  0 instructions:   96000000 cycles:  150419607 heartbeat IPC: 0.31916 cumulative IPC: 0.36023 (Simulation time: 0 hr 12 min 8 sec) 
Heartbeat CPU  2 instructions:   96000000 cycles:  150723647 heartbeat IPC: 0.37837 cumulative IPC: 0.36102 (Simulation time: 0 hr 12 min 9 sec) 
Heartbeat CPU  1 instructions:   96000000 cycles:  152290726 heartbeat IPC: 0.39839 cumulative IPC: 0.35759 (Simulation time: 0 hr 12 min 14 sec) 
Heartbeat CPU  3 instructions:   96000000 cycles:  152643811 heartbeat IPC: 0.35440 cumulative IPC: 0.33955 (Simulation time: 0 hr 12 min 15 sec) 
Heartbeat CPU  2 instructions:   97000000 cycles:  153357664 heartbeat IPC: 0.37965 cumulative IPC: 0.36140 (Simulation time: 0 hr 12 min 18 sec) 
Heartbeat CPU  0 instructions:   97000000 cycles:  153491154 heartbeat IPC: 0.32557 cumulative IPC: 0.35941 (Simulation time: 0 hr 12 min 18 sec) 
Heartbeat CPU  3 instructions:   97000001 cycles:  155358200 heartbeat IPC: 0.36841 cumulative IPC: 0.34014 (Simulation time: 0 hr 12 min 24 sec) 
Heartbeat CPU  1 instructions:   97000001 cycles:  155424098 heartbeat IPC: 0.31915 cumulative IPC: 0.35667 (Simulation time: 0 hr 12 min 24 sec) 
Heartbeat CPU  2 instructions:   98000003 cycles:  156032116 heartbeat IPC: 0.37391 cumulative IPC: 0.36165 (Simulation time: 0 hr 12 min 26 sec) 
Heartbeat CPU  0 instructions:   98000000 cycles:  156320760 heartbeat IPC: 0.35341 cumulative IPC: 0.35929 (Simulation time: 0 hr 12 min 27 sec) 
Heartbeat CPU  3 instructions:   98000002 cycles:  158071081 heartbeat IPC: 0.36861 cumulative IPC: 0.34072 (Simulation time: 0 hr 12 min 33 sec) 
Heartbeat CPU  1 instructions:   98000001 cycles:  158197528 heartbeat IPC: 0.36056 cumulative IPC: 0.35675 (Simulation time: 0 hr 12 min 33 sec) 
Heartbeat CPU  0 instructions:   99000003 cycles:  158642993 heartbeat IPC: 0.43062 cumulative IPC: 0.36051 (Simulation time: 0 hr 12 min 35 sec) 
Heartbeat CPU  2 instructions:   99000002 cycles:  158706110 heartbeat IPC: 0.37397 cumulative IPC: 0.36190 (Simulation time: 0 hr 12 min 35 sec) 
*** Reached end of trace for Core: 0 Repeating trace: /data3/CASSANDRA/traces/cassandra_phase3_core0.trace.xz
Heartbeat CPU  0 instructions:  100000000 cycles:  160830589 heartbeat IPC: 0.45712 cumulative IPC: 0.36205 (Simulation time: 0 hr 12 min 42 sec) 
Heartbeat CPU  1 instructions:   99000002 cycles:  160841681 heartbeat IPC: 0.37819 cumulative IPC: 0.35716 (Simulation time: 0 hr 12 min 42 sec) 
Heartbeat CPU  3 instructions:   99000003 cycles:  161463691 heartbeat IPC: 0.29476 cumulative IPC: 0.33959 (Simulation time: 0 hr 12 min 44 sec) 
*** Reached end of trace for Core: 2 Repeating trace: /data3/CASSANDRA/traces/cassandra_phase3_core2.trace.xz
Heartbeat CPU  2 instructions:  100000000 cycles:  161682124 heartbeat IPC: 0.33602 cumulative IPC: 0.36134 (Simulation time: 0 hr 12 min 45 sec) 
Heartbeat CPU  0 instructions:  101000002 cycles:  162565465 heartbeat IPC: 0.57641 cumulative IPC: 0.36473 (Simulation time: 0 hr 12 min 49 sec) 
*** Reached end of trace for Core: 1 Repeating trace: /data3/CASSANDRA/traces/cassandra_phase3_core1.trace.xz
Heartbeat CPU  1 instructions:  100000000 cycles:  163534288 heartbeat IPC: 0.37139 cumulative IPC: 0.35744 (Simulation time: 0 hr 12 min 52 sec) 
*** Reached end of trace for Core: 3 Repeating trace: /data3/CASSANDRA/traces/cassandra_phase3_core3.trace.xz
Heartbeat CPU  3 instructions:  100000000 cycles:  164185469 heartbeat IPC: 0.36741 cumulative IPC: 0.34013 (Simulation time: 0 hr 12 min 54 sec) 
Heartbeat CPU  2 instructions:  101000002 cycles:  164262586 heartbeat IPC: 0.38753 cumulative IPC: 0.36182 (Simulation time: 0 hr 12 min 54 sec) 
Heartbeat CPU  0 instructions:  102000001 cycles:  165240720 heartbeat IPC: 0.37380 cumulative IPC: 0.36490 (Simulation time: 0 hr 12 min 57 sec) 
Heartbeat CPU  2 instructions:  102000003 cycles:  166959745 heartbeat IPC: 0.37076 cumulative IPC: 0.36199 (Simulation time: 0 hr 13 min 2 sec) 
Heartbeat CPU  1 instructions:  101000000 cycles:  167100395 heartbeat IPC: 0.28042 cumulative IPC: 0.35552 (Simulation time: 0 hr 13 min 2 sec) 
Heartbeat CPU  3 instructions:  101000000 cycles:  167495093 heartbeat IPC: 0.30215 cumulative IPC: 0.33925 (Simulation time: 0 hr 13 min 3 sec) 
Heartbeat CPU  0 instructions:  103000003 cycles:  168343369 heartbeat IPC: 0.32231 cumulative IPC: 0.36399 (Simulation time: 0 hr 13 min 6 sec) 
Heartbeat CPU  2 instructions:  103000001 cycles:  169661373 heartbeat IPC: 0.37015 cumulative IPC: 0.36214 (Simulation time: 0 hr 13 min 10 sec) 
Heartbeat CPU  3 instructions:  102000001 cycles:  170279153 heartbeat IPC: 0.35919 cumulative IPC: 0.33963 (Simulation time: 0 hr 13 min 11 sec) 
Heartbeat CPU  0 instructions:  104000000 cycles:  170954929 heartbeat IPC: 0.38291 cumulative IPC: 0.36432 (Simulation time: 0 hr 13 min 13 sec) 
Heartbeat CPU  1 instructions:  102000003 cycles:  171940505 heartbeat IPC: 0.20661 cumulative IPC: 0.35066 (Simulation time: 0 hr 13 min 17 sec) 
Heartbeat CPU  2 instructions:  104000000 cycles:  172403661 heartbeat IPC: 0.36466 cumulative IPC: 0.36218 (Simulation time: 0 hr 13 min 18 sec) 
Heartbeat CPU  3 instructions:  103000003 cycles:  173038540 heartbeat IPC: 0.36240 cumulative IPC: 0.34005 (Simulation time: 0 hr 13 min 20 sec) 
Heartbeat CPU  0 instructions:  105000000 cycles:  173661548 heartbeat IPC: 0.36946 cumulative IPC: 0.36442 (Simulation time: 0 hr 13 min 22 sec) 
Heartbeat CPU  2 instructions:  105000002 cycles:  175126593 heartbeat IPC: 0.36725 cumulative IPC: 0.36228 (Simulation time: 0 hr 13 min 26 sec) 
Heartbeat CPU  1 instructions:  103000001 cycles:  175476225 heartbeat IPC: 0.28283 cumulative IPC: 0.34908 (Simulation time: 0 hr 13 min 27 sec) 
Heartbeat CPU  3 instructions:  104000000 cycles:  175822622 heartbeat IPC: 0.35918 cumulative IPC: 0.34040 (Simulation time: 0 hr 13 min 28 sec) 
Heartbeat CPU  0 instructions:  106000003 cycles:  177336164 heartbeat IPC: 0.27214 cumulative IPC: 0.36221 (Simulation time: 0 hr 13 min 33 sec) 
Heartbeat CPU  2 instructions:  106000001 cycles:  177409171 heartbeat IPC: 0.43810 cumulative IPC: 0.36340 (Simulation time: 0 hr 13 min 33 sec) 
Heartbeat CPU  1 instructions:  104000000 cycles:  178030589 heartbeat IPC: 0.39149 cumulative IPC: 0.34979 (Simulation time: 0 hr 13 min 35 sec) 
Heartbeat CPU  3 instructions:  105000000 cycles:  178721611 heartbeat IPC: 0.34495 cumulative IPC: 0.34049 (Simulation time: 0 hr 13 min 38 sec) 
Heartbeat CPU  0 instructions:  107000003 cycles:  180006394 heartbeat IPC: 0.37450 cumulative IPC: 0.36242 (Simulation time: 0 hr 13 min 42 sec) 
Heartbeat CPU  1 instructions:  105000003 cycles:  180628636 heartbeat IPC: 0.38491 cumulative IPC: 0.35037 (Simulation time: 0 hr 13 min 44 sec) 
Heartbeat CPU  2 instructions:  107000002 cycles:  181037738 heartbeat IPC: 0.27559 cumulative IPC: 0.36138 (Simulation time: 0 hr 13 min 45 sec) 
Heartbeat CPU  0 instructions:  108000000 cycles:  181659210 heartbeat IPC: 0.60503 cumulative IPC: 0.36496 (Simulation time: 0 hr 13 min 48 sec) 
Heartbeat CPU  3 instructions:  106000002 cycles:  181822630 heartbeat IPC: 0.32248 cumulative IPC: 0.34013 (Simulation time: 0 hr 13 min 48 sec) 
Heartbeat CPU  1 instructions:  106000000 cycles:  183117902 heartbeat IPC: 0.40172 cumulative IPC: 0.35117 (Simulation time: 0 hr 13 min 52 sec) 
Heartbeat CPU  2 instructions:  108000000 cycles:  183733556 heartbeat IPC: 0.37094 cumulative IPC: 0.36154 (Simulation time: 0 hr 13 min 54 sec) 
Heartbeat CPU  0 instructions:  109000001 cycles:  184448540 heartbeat IPC: 0.35851 cumulative IPC: 0.36485 (Simulation time: 0 hr 13 min 57 sec) 
Heartbeat CPU  3 instructions:  107000002 cycles:  184583697 heartbeat IPC: 0.36218 cumulative IPC: 0.34051 (Simulation time: 0 hr 13 min 57 sec) 
Heartbeat CPU  1 instructions:  107000001 cycles:  185745444 heartbeat IPC: 0.38058 cumulative IPC: 0.35164 (Simulation time: 0 hr 14 min 1 sec) 
Heartbeat CPU  2 instructions:  109000000 cycles:  186317305 heartbeat IPC: 0.38703 cumulative IPC: 0.36194 (Simulation time: 0 hr 14 min 2 sec) 
Heartbeat CPU  3 instructions:  108000000 cycles:  187377965 heartbeat IPC: 0.35787 cumulative IPC: 0.34081 (Simulation time: 0 hr 14 min 6 sec) 
Heartbeat CPU  0 instructions:  110000001 cycles:  187535057 heartbeat IPC: 0.32399 cumulative IPC: 0.36408 (Simulation time: 0 hr 14 min 6 sec) 
Heartbeat CPU  1 instructions:  108000000 cycles:  188402682 heartbeat IPC: 0.37633 cumulative IPC: 0.35204 (Simulation time: 0 hr 14 min 9 sec) 
Heartbeat CPU  2 instructions:  110000001 cycles:  188930934 heartbeat IPC: 0.38261 cumulative IPC: 0.36227 (Simulation time: 0 hr 14 min 11 sec) 
Heartbeat CPU  3 instructions:  109000001 cycles:  190447293 heartbeat IPC: 0.32580 cumulative IPC: 0.34053 (Simulation time: 0 hr 14 min 17 sec) 
Heartbeat CPU  2 instructions:  111000001 cycles:  190581598 heartbeat IPC: 0.60582 cumulative IPC: 0.36468 (Simulation time: 0 hr 14 min 17 sec) 
Heartbeat CPU  1 instructions:  109000001 cycles:  190592661 heartbeat IPC: 0.45663 cumulative IPC: 0.35342 (Simulation time: 0 hr 14 min 17 sec) 
Heartbeat CPU  0 instructions:  111000001 cycles:  190721489 heartbeat IPC: 0.31383 cumulative IPC: 0.36312 (Simulation time: 0 hr 14 min 17 sec) 
Heartbeat CPU  0 instructions:  112000000 cycles:  193073330 heartbeat IPC: 0.42520 cumulative IPC: 0.36398 (Simulation time: 0 hr 14 min 25 sec) 
Heartbeat CPU  3 instructions:  110000003 cycles:  193247720 heartbeat IPC: 0.35709 cumulative IPC: 0.34081 (Simulation time: 0 hr 14 min 26 sec) 
Heartbeat CPU  1 instructions:  110000002 cycles:  193348320 heartbeat IPC: 0.36289 cumulative IPC: 0.35357 (Simulation time: 0 hr 14 min 26 sec) 
Heartbeat CPU  2 instructions:  112000000 cycles:  193938931 heartbeat IPC: 0.29786 cumulative IPC: 0.36336 (Simulation time: 0 hr 14 min 28 sec) 
Heartbeat CPU  0 instructions:  113000002 cycles:  194990406 heartbeat IPC: 0.52163 cumulative IPC: 0.36574 (Simulation time: 0 hr 14 min 31 sec) 
Heartbeat CPU  3 instructions:  111000000 cycles:  196016731 heartbeat IPC: 0.36114 cumulative IPC: 0.34113 (Simulation time: 0 hr 14 min 35 sec) 
Heartbeat CPU  1 instructions:  111000003 cycles:  196609610 heartbeat IPC: 0.30663 cumulative IPC: 0.35268 (Simulation time: 0 hr 14 min 36 sec) 
Heartbeat CPU  2 instructions:  113000001 cycles:  196823997 heartbeat IPC: 0.34661 cumulative IPC: 0.36308 (Simulation time: 0 hr 14 min 37 sec) 
Heartbeat CPU  0 instructions:  114000000 cycles:  198162749 heartbeat IPC: 0.31522 cumulative IPC: 0.36483 (Simulation time: 0 hr 14 min 41 sec) 
Heartbeat CPU  1 instructions:  112000000 cycles:  198992803 heartbeat IPC: 0.41960 cumulative IPC: 0.35359 (Simulation time: 0 hr 14 min 44 sec) 
Heartbeat CPU  2 instructions:  114000001 cycles:  199123270 heartbeat IPC: 0.43492 cumulative IPC: 0.36402 (Simulation time: 0 hr 14 min 44 sec) 
Heartbeat CPU  3 instructions:  112000000 cycles:  199237344 heartbeat IPC: 0.31050 cumulative IPC: 0.34057 (Simulation time: 0 hr 14 min 45 sec) 
Heartbeat CPU  2 instructions:  115000001 cycles:  201672590 heartbeat IPC: 0.39226 cumulative IPC: 0.36443 (Simulation time: 0 hr 14 min 52 sec) 
Heartbeat CPU  0 instructions:  115000002 cycles:  201701311 heartbeat IPC: 0.28260 cumulative IPC: 0.36319 (Simulation time: 0 hr 14 min 52 sec) 
Heartbeat CPU  3 instructions:  113000000 cycles:  202549986 heartbeat IPC: 0.30187 cumulative IPC: 0.33985 (Simulation time: 0 hr 14 min 54 sec) 
Heartbeat CPU  1 instructions:  113000003 cycles:  203444548 heartbeat IPC: 0.22463 cumulative IPC: 0.35040 (Simulation time: 0 hr 14 min 57 sec) 
Heartbeat CPU  2 instructions:  116000000 cycles:  203942649 heartbeat IPC: 0.44052 cumulative IPC: 0.36539 (Simulation time: 0 hr 14 min 59 sec) 
Heartbeat CPU  0 instructions:  116000000 cycles:  204155001 heartbeat IPC: 0.40755 cumulative IPC: 0.36379 (Simulation time: 0 hr 15 min 0 sec) 
Heartbeat CPU  1 instructions:  114000002 cycles:  205179181 heartbeat IPC: 0.57649 cumulative IPC: 0.35256 (Simulation time: 0 hr 15 min 3 sec) 
Heartbeat CPU  3 instructions:  114000001 cycles:  205838189 heartbeat IPC: 0.30412 cumulative IPC: 0.33921 (Simulation time: 0 hr 15 min 5 sec) 
Heartbeat CPU  2 instructions:  117000002 cycles:  206906951 heartbeat IPC: 0.33735 cumulative IPC: 0.36493 (Simulation time: 0 hr 15 min 8 sec) 
Heartbeat CPU  0 instructions:  117000001 cycles:  207432783 heartbeat IPC: 0.30508 cumulative IPC: 0.36275 (Simulation time: 0 hr 15 min 10 sec) 
Heartbeat CPU  1 instructions:  115000003 cycles:  208062100 heartbeat IPC: 0.34687 cumulative IPC: 0.35247 (Simulation time: 0 hr 15 min 12 sec) 
Heartbeat CPU  3 instructions:  115000001 cycles:  208728246 heartbeat IPC: 0.34601 cumulative IPC: 0.33932 (Simulation time: 0 hr 15 min 14 sec) 
Heartbeat CPU  2 instructions:  118000000 cycles:  209873683 heartbeat IPC: 0.33707 cumulative IPC: 0.36449 (Simulation time: 0 hr 15 min 17 sec) 
Heartbeat CPU  0 instructions:  118000000 cycles:  210418811 heartbeat IPC: 0.33489 cumulative IPC: 0.36230 (Simulation time: 0 hr 15 min 19 sec) 
Heartbeat CPU  1 instructions:  116000000 cycles:  211210753 heartbeat IPC: 0.31760 cumulative IPC: 0.35189 (Simulation time: 0 hr 15 min 21 sec) 
Heartbeat CPU  3 instructions:  116000000 cycles:  211995992 heartbeat IPC: 0.30602 cumulative IPC: 0.33874 (Simulation time: 0 hr 15 min 24 sec) 
Heartbeat CPU  2 instructions:  119000003 cycles:  212619535 heartbeat IPC: 0.36419 cumulative IPC: 0.36448 (Simulation time: 0 hr 15 min 26 sec) 
Heartbeat CPU  0 instructions:  119000000 cycles:  213167374 heartbeat IPC: 0.36383 cumulative IPC: 0.36232 (Simulation time: 0 hr 15 min 28 sec) 
Heartbeat CPU  1 instructions:  117000000 cycles:  213641053 heartbeat IPC: 0.41147 cumulative IPC: 0.35265 (Simulation time: 0 hr 15 min 29 sec) 
Heartbeat CPU  3 instructions:  117000002 cycles:  214983439 heartbeat IPC: 0.33473 cumulative IPC: 0.33867 (Simulation time: 0 hr 15 min 33 sec) 
Heartbeat CPU  2 instructions:  120000000 cycles:  215341763 heartbeat IPC: 0.36735 cumulative IPC: 0.36452 (Simulation time: 0 hr 15 min 34 sec) 
Heartbeat CPU  0 instructions:  120000000 cycles:  216324538 heartbeat IPC: 0.31674 cumulative IPC: 0.36158 (Simulation time: 0 hr 15 min 37 sec) 
Heartbeat CPU  1 instructions:  118000000 cycles:  216903083 heartbeat IPC: 0.30656 cumulative IPC: 0.35187 (Simulation time: 0 hr 15 min 39 sec) 
Heartbeat CPU  3 instructions:  118000002 cycles:  217675432 heartbeat IPC: 0.37147 cumulative IPC: 0.33913 (Simulation time: 0 hr 15 min 42 sec) 
Heartbeat CPU  0 instructions:  121000001 cycles:  218761786 heartbeat IPC: 0.41030 cumulative IPC: 0.36219 (Simulation time: 0 hr 15 min 45 sec) 
Heartbeat CPU  2 instructions:  121000000 cycles:  219290045 heartbeat IPC: 0.25327 cumulative IPC: 0.36228 (Simulation time: 0 hr 15 min 47 sec) 
Heartbeat CPU  1 instructions:  119000002 cycles:  219741964 heartbeat IPC: 0.35225 cumulative IPC: 0.35188 (Simulation time: 0 hr 15 min 49 sec) 
Heartbeat CPU  0 instructions:  122000003 cycles:  220150669 heartbeat IPC: 0.72000 cumulative IPC: 0.36471 (Simulation time: 0 hr 15 min 50 sec) 
Heartbeat CPU  3 instructions:  119000001 cycles:  220298886 heartbeat IPC: 0.38118 cumulative IPC: 0.33969 (Simulation time: 0 hr 15 min 50 sec) 
Heartbeat CPU  1 instructions:  120000000 cycles:  222626291 heartbeat IPC: 0.34670 cumulative IPC: 0.35180 (Simulation time: 0 hr 15 min 57 sec) 
Heartbeat CPU  2 instructions:  122000003 cycles:  222789840 heartbeat IPC: 0.28573 cumulative IPC: 0.36093 (Simulation time: 0 hr 15 min 58 sec) 
Heartbeat CPU  0 instructions:  123000001 cycles:  222797639 heartbeat IPC: 0.37779 cumulative IPC: 0.36489 (Simulation time: 0 hr 15 min 58 sec) 
Heartbeat CPU  3 instructions:  120000000 cycles:  222929443 heartbeat IPC: 0.38015 cumulative IPC: 0.34022 (Simulation time: 0 hr 15 min 58 sec) 
Heartbeat CPU  2 instructions:  123000000 cycles:  225898006 heartbeat IPC: 0.32173 cumulative IPC: 0.36033 (Simulation time: 0 hr 16 min 7 sec) 
Heartbeat CPU  0 instructions:  124000000 cycles:  225908654 heartbeat IPC: 0.32144 cumulative IPC: 0.36422 (Simulation time: 0 hr 16 min 7 sec) 
Heartbeat CPU  1 instructions:  121000001 cycles:  225955758 heartbeat IPC: 0.30035 cumulative IPC: 0.35095 (Simulation time: 0 hr 16 min 7 sec) 
Heartbeat CPU  3 instructions:  121000001 cycles:  226272058 heartbeat IPC: 0.29917 cumulative IPC: 0.33955 (Simulation time: 0 hr 16 min 8 sec) 
Heartbeat CPU  1 instructions:  122000002 cycles:  228759455 heartbeat IPC: 0.35667 cumulative IPC: 0.35103 (Simulation time: 0 hr 16 min 14 sec) 
Heartbeat CPU  3 instructions:  122000001 cycles:  230072962 heartbeat IPC: 0.26310 cumulative IPC: 0.33814 (Simulation time: 0 hr 16 min 18 sec) 
Heartbeat CPU  0 instructions:  125000002 cycles:  230160941 heartbeat IPC: 0.23517 cumulative IPC: 0.36156 (Simulation time: 0 hr 16 min 18 sec) 
Heartbeat CPU  1 instructions:  123000003 cycles:  231687868 heartbeat IPC: 0.34148 cumulative IPC: 0.35090 (Simulation time: 0 hr 16 min 23 sec) 
Heartbeat CPU  2 instructions:  124000000 cycles:  232085283 heartbeat IPC: 0.16162 cumulative IPC: 0.35443 (Simulation time: 0 hr 16 min 24 sec) 
Heartbeat CPU  3 instructions:  123000003 cycles:  232795550 heartbeat IPC: 0.36730 cumulative IPC: 0.33852 (Simulation time: 0 hr 16 min 26 sec) 
Heartbeat CPU  0 instructions:  126000003 cycles:  232951700 heartbeat IPC: 0.35833 cumulative IPC: 0.36152 (Simulation time: 0 hr 16 min 26 sec) 
Heartbeat CPU  1 instructions:  124000000 cycles:  234762007 heartbeat IPC: 0.32529 cumulative IPC: 0.35053 (Simulation time: 0 hr 16 min 32 sec) 
Heartbeat CPU  2 instructions:  125000002 cycles:  234768579 heartbeat IPC: 0.37268 cumulative IPC: 0.35466 (Simulation time: 0 hr 16 min 32 sec) 
Heartbeat CPU  0 instructions:  127000002 cycles:  235081065 heartbeat IPC: 0.46962 cumulative IPC: 0.36261 (Simulation time: 0 hr 16 min 34 sec) 
Heartbeat CPU  3 instructions:  124000000 cycles:  235566149 heartbeat IPC: 0.36093 cumulative IPC: 0.33881 (Simulation time: 0 hr 16 min 36 sec) 
Heartbeat CPU  1 instructions:  125000002 cycles:  237929877 heartbeat IPC: 0.31567 cumulative IPC: 0.35001 (Simulation time: 0 hr 16 min 42 sec) 
Heartbeat CPU  0 instructions:  128000000 cycles:  238236898 heartbeat IPC: 0.31687 cumulative IPC: 0.36194 (Simulation time: 0 hr 16 min 42 sec) 
Heartbeat CPU  3 instructions:  125000002 cycles:  238532418 heartbeat IPC: 0.33712 cumulative IPC: 0.33879 (Simulation time: 0 hr 16 min 43 sec) 
Heartbeat CPU  2 instructions:  126000001 cycles:  238720625 heartbeat IPC: 0.25303 cumulative IPC: 0.35280 (Simulation time: 0 hr 16 min 44 sec) 
Heartbeat CPU  1 instructions:  126000000 cycles:  241967908 heartbeat IPC: 0.24764 cumulative IPC: 0.34812 (Simulation time: 0 hr 16 min 50 sec) 
Heartbeat CPU  3 instructions:  126000000 cycles:  243003594 heartbeat IPC: 0.22365 cumulative IPC: 0.33644 (Simulation time: 0 hr 16 min 53 sec) 
Heartbeat CPU  0 instructions:  129000000 cycles:  243182057 heartbeat IPC: 0.20222 cumulative IPC: 0.35834 (Simulation time: 0 hr 16 min 54 sec) 
Heartbeat CPU  2 instructions:  127000001 cycles:  243981316 heartbeat IPC: 0.19009 cumulative IPC: 0.34891 (Simulation time: 0 hr 16 min 57 sec) 
Heartbeat CPU  1 instructions:  127000002 cycles:  244244207 heartbeat IPC: 0.43931 cumulative IPC: 0.34906 (Simulation time: 0 hr 16 min 58 sec) 
Heartbeat CPU  3 instructions:  127000001 cycles:  245283834 heartbeat IPC: 0.43855 cumulative IPC: 0.33749 (Simulation time: 0 hr 17 min 3 sec) 
Heartbeat CPU  1 instructions:  128000000 cycles:  247411026 heartbeat IPC: 0.31577 cumulative IPC: 0.34859 (Simulation time: 0 hr 17 min 8 sec) 
Heartbeat CPU  0 instructions:  130000000 cycles:  247772798 heartbeat IPC: 0.21783 cumulative IPC: 0.35546 (Simulation time: 0 hr 17 min 8 sec) 
Heartbeat CPU  3 instructions:  128000000 cycles:  248301020 heartbeat IPC: 0.33143 cumulative IPC: 0.33741 (Simulation time: 0 hr 17 min 9 sec) 
Heartbeat CPU  2 instructions:  128000000 cycles:  248445046 heartbeat IPC: 0.22403 cumulative IPC: 0.34643 (Simulation time: 0 hr 17 min 10 sec) 
Heartbeat CPU  0 instructions:  131000000 cycles:  251028725 heartbeat IPC: 0.30713 cumulative IPC: 0.35477 (Simulation time: 0 hr 17 min 16 sec) 
Heartbeat CPU  1 instructions:  129000000 cycles:  252569753 heartbeat IPC: 0.19385 cumulative IPC: 0.34510 (Simulation time: 0 hr 17 min 19 sec) 
Heartbeat CPU  3 instructions:  129000003 cycles:  253412979 heartbeat IPC: 0.19562 cumulative IPC: 0.33426 (Simulation time: 0 hr 17 min 21 sec) 
Heartbeat CPU  2 instructions:  129000002 cycles:  253666185 heartbeat IPC: 0.19153 cumulative IPC: 0.34292 (Simulation time: 0 hr 17 min 21 sec) 
Heartbeat CPU  0 instructions:  132000000 cycles:  254895460 heartbeat IPC: 0.25862 cumulative IPC: 0.35316 (Simulation time: 0 hr 17 min 23 sec) 
Heartbeat CPU  1 instructions:  130000002 cycles:  256994862 heartbeat IPC: 0.22598 cumulative IPC: 0.34284 (Simulation time: 0 hr 17 min 29 sec) 
Heartbeat CPU  3 instructions:  130000001 cycles:  258002897 heartbeat IPC: 0.21787 cumulative IPC: 0.33198 (Simulation time: 0 hr 17 min 31 sec) 
[...]
IIIA4I2A2444444I4A4A2I2I4444444444444444I4I4IIIIIIIIIIIIIIIIIIII
IIII4I2A2444444I4A4A2I2I4444444444444444I4I4IIIIIIIIIIIIIIIIIIII
IIII4I2A2444444I4A4A242I4444444444444444I4I4IIIIIIIIIIIIIIIIIIII
IIII4I2A2444444I4A4A24244444444444444444I4I4IIIIIIIIIIIIIIIIIIII
IIII4I2A2A4444444A4A24244444444444444444I4I4IIIIIIIIIIIIIIIIIIII
IIII4I2A2A4A44444A4A24244444444444444444I4I4IIIIIIIIIIIIIIIIIIII
IIII4I2A2A4A44444A4A24244444A4444444444444444444IIIIIIIIIIIIIIII
IA4I442A2A4A44444A4A24244444A4444444444444444444IIIIIIIIIIIIIIII
IA4A442A2A4A44444A4A24244444A4444444444444444444IIIIIIIIIIIIIIII
IIIIIIIIIIIIIIIIIIIIIIIA44444IIIIIIIIIIIIIIIIIIIIIIIIIIIIIIIIIII
IIIIIIIIIIIIIIIIIIIIIIIA4A44444IIIIIIIIIIIIIIIIIIIIIIIIIIIIIIIII
IIIIIIIIIIIA4II4I4444II4444II4IIIIIIIIIIIIIIIIIIIIIIIIIIIIIIIIII
IIIIIIIIIIIA4A44I4444444444444I4IIIIIIIIIIIIIIIIIIIIIIIIIIIIIIII
IIIIIIIIIIIA4A44I444444444444444IIIIIIIIIIIIIIIIIIIIIIIIIIIIIIII
IIIIIIIIIIIA4A4A444444444444444444IIIIIIIIIIIIIIIIIIIIIIIIIIIIII
IIIIIIIIIIIA4I4A444444444444444444IIIIIIIIIIIIIIIIIIIIIIIIIIIIII
IIIIIIIIIIIA4I4A444A24444444444444II4444IIIIIIIIIIIIIIIIIIIIIIII
IIIIIIIIIIIA4I4A444A2A244444444444I4444444IIIIIIIIIIIIIIIIIIIIII
IIIIIIIIIIIA4I4A444A2A24444444444444444444IIIIIIIIIIIIIIIIIIIIII
IIIIIIIIIIIA4I4A444A2A2A4444444444444444444IIIIIIIIIIIIIIIIIIIII
IIIIIIIIIIIA4I4A4A4A2A2A4444444444444444444IIIIIIIIIIIIIIIIIIIII
IIIA4II444IA4I4A4A4A2A2A4444444444444444444IIIIIIIIIIIIIIIIIIIII
IIIA4A44444A444A4A4A2A2A4444444444444444444IIIIIIIIIIIIIIIIIIIII
IIIA4A4A444A444A4A4A2A2A4444444444444444444IIIIIIIIIIIIIIIIIIIII
IIIA4A4A444A444I4A4A2A2A4444444444444444444IIIIIIIIIIIIIIIIIIIII
IIIIIIIIIIIIIIIIIA4II4I4I44III44I4I44IIIIIIIIIIIIIIIIIIIIIIIIIII
IIIIIIIIIIIIIIIIIA4A44I4I4444I4444I4444IIIIIIIIIIIIIIIIIIIIIIIII
IIIIIIIIIA4II4I44A4A44I444444I4444I4444IIIIIIIIIIIIIIIIIIIIIIIII
IIIIIIIIIA4A44I44A4A44I44444444444I4444IIIIIIIIIIIIIIIIIIIIIIIII
IIIIIIIIIA4A44I44A4A44I44444A4444444444I4I44I444IIIIIIIIIIIIIIII
IIIIIIIIIA4A44I44A4A44I44A44A444444444444444I444IIIIIIIIIIIIIIII
IIIIIIIIIA4A44I44A4A44I44A4AA4444444444444444444IIIIIIIIIIIIIIII
IIIIIIIA4A4A44I44A4A44I44A4AA4444444444444444444IIIIIIIIIIIIIIII
IIIIIIIA4A4A44I44A4A44444A4AA4444444444444444444IIIIIIIIIIIIIIII
IIIIIIIA4I4A44I44A4A44444A4AA4444444444444444444IIIIIIIIIIIIIIII
IIIIIIII4I4A44I44A4A44444A4AA4444444444444444444IIIIIIIIIIIIIIII
IA4II4I4I4I4I444I444IIIIIIIIIIIIIIIIIIIIIIIIIIIIIIIIIIIIIIIIIIII
IA4II4I4I4I4I444IA24I4I4I44444I4II444IIIIIIIIIIIIIIIIIIIIIIIIIII
IA4II4I4I4I4I444IA2A24I4I4444444I444444IIIIIIIIIIIIIIIIIIIIIIIII
IA4II4I4IA24I4444A2A2444I4444444I444444IIIIIIIIIIIIIIIIIIIIIIIII
IA4II4I4IA2A24444A2A244444444444I444444IIIIIIIIIIIIIIIIIIIIIIIII
IA4II4I4II2A24444A2A244444444444I444444IIIIIIIIIIIIIIIIIIIIIIIII
IA4II4I4II2A24444A2A24444444A2444444444I4I444IIIIIIIIIIIIIIIIIII
IA4II4I4II2A24444A2A24444A44A24444444444444444IIIIIIIIIIIIIIIIII
IA4II4I4II2A24444A2A24444A4AA24444444444444444I4IIIIIIIIIIIIIIII
IA4II4IA2I2A24444A2A24444A4AA24444444444444444I4IIIIIIIIIIIIIIII
IA4II4IA2A2A24444A2A24444A4AA24444444444444444I4IIIIIIIIIIIIIIII
IA4II4IA2A2A24444A2A24444A4AAI4444444444444444I4IIIIIIIIIIIIIIII
IA4II4IA2A2A24444A2A24444I4AAI4444444444444444I4IIIIIIIIIIIIIIII
IA4II4IA2I2A24444A2A24444I4AAI4444444444444444I4IIIIIIIIIIIIIIII
IA4II4II2I2A24444A2A24444I4AAI4444444444444444I4IIIIIIIIIIIIIIII
IA4II4I4I4I4I4I4I4I4IIIIIIIIIIIIIIIIIIIIIIIIIIIIIIIIIIIIIIIIIIII
IA2II4I4I4I4I4I4I4I4I4IIIIIIIIIIIIIIIIIIIIIIIIIIIIIIIIIIIIIIIIII
IA2A24I4I4I4I4I4I4I4I4I4IIIIIIIIIIIIIIIIIIIIIIIIIIIIIIIIIIIIIIII
II2A24I4I4I4I4I4I4I4I4I4IIIIIIIIIIIIIIIIIIIIIIIIIIIIIIIIIIIIIIII
IIIA24I4I4I4I4I4I4I4I4I4IIIIIIIIIIIIIIIIIIIIIIIIIIIIIIIIIIIIIIII
IIIA24I4I4I4I4I4I4I4I4IA24444II44I44IIIIIIIIIIIIIIIIIIIIIIIIIIII
IIIA24I4I4I4I4I4I4I4I4IA2A244444444444IIIIIIIIIIIIIIIIIIIIIIIIII
IIIA24I4I4I4I4I4I4I4I4II2A244444444444IIIIIIIIIIIIIIIIIIIIIIIIII
IIIIIIIIIIIIIIIIIA4II444444III44444I4IIIIIIIIIIIIIIIIIIIIIIIIIII
IIIIIIIIIIIIIIIIIA4A444444444I4444444I4IIIIIIIIIIIIIIIIIIIIIIIII
IIIIIIIIIA4II4444A4A444444444I4444444I4IIIIIIIIIIIIIIIIIIIIIIIII
IIIIIIIIIA4A44444A4A44444444444444444I4IIIIIIIIIIIIIIIIIIIIIIIII
IIIIIIIIIA4A44444A4A44444444A24444444I4I4I444I4IIIIIIIIIIIIIIIII
IA2444444A4A44444A4A44444444A24444444I4I4I444I4IIIIIIIIIIIIIIIII
IA2A24444A4A44444A4A44444444A24444444I4I4I444I4IIIIIIIIIIIIIIIII
IAIA24444A4A44444A4A44444444A24444444I4I4I444I4IIIIIIIIIIIIIIIII
IAII24444A4A44444A4A44444444A24444444I4I4I444I4IIIIIIIIIIIIIIIII
IAII24444A4A44444A4A444A4444A24444444I4I4I444I4IIIIIIIIIIIIIIIII
IAII24444A4A44444A4A444A4A44A24444444I4I4I444I4IIIIIIIIIIIIIIIII
IIIIIIIIIIIA4II444I4I4I4I4444IIIIIIIIIIIIIIIIIIIIIIIIIIIIIIIIIII
IIIIIIIIIIIA4A444444I4I4I444444IIIIIIIIIIIIIIIIIIIIIIIIIIIIIIIII
IIIIIIIIIIIA4A444444I44444444444IIIIIIIIIIIIIIIIIIIIIIIIIIIIIIII
IIIIIIIIIIIA4A4A4444I4444444444444IIIIIIIIIIIIIIIIIIIIIIIIIIIIII
IIIIIIIIIIIA4A4I4444I4444444444444IIIIIIIIIIIIIIIIIIIIIIIIIIIIII
IIIIIIIIIIIIIIIIIIIA4II444II4444I4I444IIIIIIIIIIIIIIIIIIIIIIIIII
IIIIIIIIIIIIIIIIIIIA4A444444444444I44444IIIIIIIIIIIIIIIIIIIIIIII
IIIIIIIIIIIIIIIIIIIA4A244444444444I44444I4IIIIIIIIIIIIIIIIIIIIII
IIIIIIIIIIIIIIIIIIIA4A2A2444444444I4444444I4IIIIIIIIIIIIIIIIIIII
IIIIIIIIIIIIIIIA4IIA4A2A2444444444I4444444I4IIIIIIIIIIIIIIIIIIII
IIIIIIIIIIIIIIIA4A4A4A2A244444444444444444I4IIIIIIIIIIIIIIIIIIII
IIIA4II4I4IIIIIA4A4A4A2A244444444444444444I4IIIIIIIIIIIIIIIIIIII
IIIA4A44I4I4IIIA4A4A4A2A244444444444444444I4IIIIIIIIIIIIIIIIIIII
IIIA4A44I4I4I44A4A4A4A2A244444444444444444I4IIIIIIIIIIIIIIIIIIII
IIIA4A4A44I4I44A4A4A4A2A244444444444444444I4IIIIIIIIIIIIIIIIIIII
IIIA4A4A44I4I44A4I4A4A2A244444444444444444I4IIIIIIIIIIIIIIIIIIII
IIII4A4A44I4I44A4I4A4A2A244444444444444444I4IIIIIIIIIIIIIIIIIIII
IIII4A4A44I4I44I4I4A4A2A244444444444444444I4IIIIIIIIIIIIIIIIIIII
IIIIIIIIIIIIIIIIIA4II4I444444II444444IIIIIIIIIIIIIIIIIIIIIIIIIII
IIIIIIIIIIIIIIIIIA4A44I4444444444444444IIIIIIIIIIIIIIIIIIIIIIIII
IIIIIIIIIA4II4I44A4A44I4444444444444444IIIIIIIIIIIIIIIIIIIIIIIII
IIIIIIIIIA4A44I44A4A44I4444444444444444IIIIIIIIIIIIIIIIIIIIIIIII
IIIIIIIIIA4A44I44A4A44I44444A4444444444I4I4IIIIIIIIIIIIIIIIIIIII
IIIIIIIIIA4A44I44A4A44I44A44A4444444444I4444I4IIIIIIIIIIIIIIIIII
IIIIIIIIIA4A44I44A4A44I44A4AA444444444444444I4I4IIIIIIIIIIIIIIII
IIIIIIIA4A4A44I44A4A44I44A4AA444444444444444I4I4IIIIIIIIIIIIIIII
IA44III4I4I4I444IIIIIIIIIIIIIIIIIIIIIIIIIIIIIIIIIIIIIIIIIIIIIIII
IA44I4I4I4I4I4444444I4IIIIIIIIIIIIIIIIIIIIIIIIIIIIIIIIIIIIIIIIII
IA4A44I4I4I4I444444444I4IIIIIIIIIIIIIIIIIIIIIIIIIIIIIIIIIIIIIIII
II4A44I4I4I4I444444444I4IIIIIIIIIIIIIIIIIIIIIIIIIIIIIIIIIIIIIIII
II4A44I4I4I4I444444444IA44I444I44IIIIIIIIIIIIIIIIIIIIIIIIIIIIIII
II4A44I4I4I4I444444444IA4A444444444IIIIIIIIIIIIIIIIIIIIIIIIIIIII
II4A44I4I4I4I444444444II4A444444444IIIIIIIIIIIIIIIIIIIIIIIIIIIII
IIIIIIIIIIIIIIIIIIIIIIIIIIIA4444IIIIIIIIIIIIIIIIIIIIIIIIIIIIIIII
IIIIIIIIIIIIIIIIIIIIIIIIIIIAA4444IIIIIIIIIIIIIIIIIIIIIIIIIIIIIII
IIIIIIIIIA4444I44444444444IIIIIIIIIIIIIIIIIIIIIIIIIIIIIIIIIIIIII
IIIIIIIIIA4A4444444444444444IIIIIIIIIIIIIIIIIIIIIIIIIIIIIIIIIIII
IIIIIIIIIA4A4444444444444444A4I44I4I444I444444IIIIIIIIIIIIIIIIII
IIIIIIIIIA4A4444444444444A44A4I44444444I444444IIIIIIIIIIIIIIIIII
IIIIIIIIIA4A4444444444444A4AA44444444444444444IIIIIIIIIIIIIIIIII
IIIIIIIA4A4A4444444444444A4AA44444444444444444IIIIIIIIIIIIIIIIII
IA44I4IA4A4A4444444444444A4AA44444444444444444IIIIIIIIIIIIIIIIII
IA4444IA4A4A4444444444444A4AA44444444444444444IIIIIIIIIIIIIIIIII
IA4A444A4A4A4444444444444A4AA44444444444444444IIIIIIIIIIIIIIIIII
IA4A444A4A4A44444A4444444A4AA44444444444444444IIIIIIIIIIIIIIIIII
IA4A444A4A4A44444A4A44444A4AA44444444444444444IIIIIIIIIIIIIIIIII
IIIIIIIIIIIIIIIIIIIIIIIA444444I44IIIIIIIIIIIIIIIIIIIIIIIIIIIIIII
IIIIIIIIIIIIIIIIIIIIIIIA4A444444444IIIIIIIIIIIIIIIIIIIIIIIIIIIII
IIIIIIIIIIIA4IIII44II44I444I44IIIIIIIIIIIIIIIIIIIIIIIIIIIIIIIIII
IIIIIIIIIIIA4A4II444444444444444IIIIIIIIIIIIIIIIIIIIIIIIIIIIIIII
IIIIIIIIIIIA4A4A44444444444444444IIIIIIIIIIIIIIIIIIIIIIIIIIIIIII
IIIIIIIIIIIIIIIIIIIIIIIIIA444444I4IIIIIIIIIIIIIIIIIIIIIIIIIIIIII
IIIIIIIIIIIIIIIIIIIIIIIIIA4A444444I4IIIIIIIIIIIIIIIIIIIIIIIIIIII
IIIIIIIA44I4444I444III444A4A444444I4IIIIIIIIIIIIIIIIIIIIIIIIIIII
IIIIIIIA4A44444444444I444A4A444444I4IIIIIIIIIIIIIIIIIIIIIIIIIIII
IA4II4IA4A44444444444I444A4A444444I4IIIIIIIIIIIIIIIIIIIIIIIIIIII
IA44I4IA4A44444444444I444A4A444444I4IIIIIIIIIIIIIIIIIIIIIIIIIIII
IA4A44IA4A44444444444I444A4A444444I4IIIIIIIIIIIIIIIIIIIIIIIIIIII
IA4A44IA4A44444444444I4A4A4A444444I4IIIIIIIIIIIIIIIIIIIIIIIIIIII
IA4A44IA4A4A44444444444A4A4A444444I4IIIIIIIIIIIIIIIIIIIIIIIIIIII
IA4A44IA4A4A4A444444444A4A4A444444I4IIIIIIIIIIIIIIIIIIIIIIIIIIII
IA4A44IA4A4A4A4A4444444A4A4A444444I4IIIIIIIIIIIIIIIIIIIIIIIIIIII
IIIIIIIIIIIIIIIIIIIA4444444IIII4444444IIIIIIIIIIIIIIIIIIIIIIIIII
IIIIIIIIIIIIIIIIIIIA4A4444444II444444444IIIIIIIIIIIIIIIIIIIIIIII
IIIIIIIIIIIIIIIIIIIA4A444444444444444444IIIIIIIIIIIIIIIIIIIIIIII
IIIIIIIIIIIIIIIIIIIA4A4A4444444444444444IIIIIIIIIIIIIIIIIIIIIIII
IIIIIIIIIIIIIIIA4IIA4A4A4444444444444444IIIIIIIIIIIIIIIIIIIIIIII
IIIIIIIIIIIIIIIA4A4A4A4A4444444444444444IIIIIIIIIIIIIIIIIIIIIIII
IIIA4II444III4IA4A4A4A4A4444444444444444IIIIIIIIIIIIIIIIIIIIIIII
IIIA4A444444I4IA4A4A4A4A4444444444444444IIIIIIIIIIIIIIIIIIIIIIII
IIIA4A4A444444IA4A4A4A4A4444444444444444IIIIIIIIIIIIIIIIIIIIIIII
IIIIIIIIIIIIIIIIIA4II4I444III4444III44IIIIIIIIIIIIIIIIIIIIIIIIII
IIIIIIIIIIIIIIIIIA4A44I44444I444444I4444IIIIIIIIIIIIIIIIIIIIIIII
IIIIIIIIIA4IIII4IA4A44I44444I444444I4444IIIIIIIIIIIIIIIIIIIIIIII
IIIIIIIIIA4A4II4IA4A44I444444444444I4444IIIIIIIIIIIIIIIIIIIIIIII
IIIIIIIIIIIIIIIIIIIA4II444I444444I44II44IIIIIIIIIIIIIIIIIIIIIIII
IIIIIIIIIIIIIIIIIIIA4A44444444444444444444IIIIIIIIIIIIIIIIIIIIII
IIIIIIIIIIIIIIIIIIIA4A4A444444444444444444IIIIIIIIIIIIIIIIIIIIII
IIIIIIIIIIIIIIIA4IIA4A4A444444444444444444IIIIIIIIIIIIIIIIIIIIII
IIIIIIIIIIIIIIIA4A4A4A4A444444444444444444IIIIIIIIIIIIIIIIIIIIII
IIIA4II4444444IA4A4A4A4A444444444444444444IIIIIIIIIIIIIIIIIIIIII
IIIA4A444444444A4A4A4A4A444444444444444444IIIIIIIIIIIIIIIIIIIIII
IIIA4A4A4444444A4A4A4A4A444444444444444444IIIIIIIIIIIIIIIIIIIIII
IIIIIIIIIIIIIIIIIA4II4444444I4I444I44IIIIIIIIIIIIIIIIIIIIIIIIIII
IIIIIIIIIIIIIIIIIA4A4444444444I44444444IIIIIIIIIIIIIIIIIIIIIIIII
IIIIIIIIIA4II4I4IA4A4444444444I44444444IIIIIIIIIIIIIIIIIIIIIIIII
IIIIIIIIIA4A44I4IA4A4444444444I44444444IIIIIIIIIIIIIIIIIIIIIIIII
IIIIIIIIIA4A44I4IA4A44444444A4I44444444I4I44II4IIIIIIIIIIIIIIIII
IIIIIIIIIA4A44I4IA4A44444A44A4I44444444I4444I44IIIIIIIIIIIIIIIII
IIIIIIIIIA4A44I4IA4A44444A4AA4I4444444444444I444IIIIIIIIIIIIIIII
IIIIIIIA4A4A44I4IA4A44444A4AA4I4444444444444I444IIIIIIIIIIIIIIII
IIIIIIIA4A4A44I4IA4A44444A4IA4I4444444444444I444IIIIIIIIIIIIIIII
IA4II4III4I4I4III44II4IIIIIIIIIIIIIIIIIIIIIIIIIIIIIIIIIIIIIIIIII
IA2II4I444I4I4I4I44444IIIIIIIIIIIIIIIIIIIIIIIIIIIIIIIIIIIIIIIIII
IA2A24I44444I4I4I4444444IIIIIIIIIIIIIIIIIIIIIIIIIIIIIIIIIIIIIIII
IA2I24I44444I4I4I4444444IIIIIIIIIIIIIIIIIIIIIIIIIIIIIIIIIIIIIIII
IA2I24I44444I4I4I444444A4444IIIIIIIIIIIIIIIIIIIIIIIIIIIIIIIIIIII
IA2I24I44444I4I4I444444A4A4444IIIIIIIIIIIIIIIIIIIIIIIIIIIIIIIIII
IA2I24I4444A44I4I444444A4A4444IIIIIIIIIIIIIIIIIIIIIIIIIIIIIIIIII
IA2I24I4444A4A44I444444A4A44444IIIIIIIIIIIIIIIIIIIIIIIIIIIIIIIII
IA2I24I4444A4A444444444A4A44444IIIIIIIIIIIIIIIIIIIIIIIIIIIIIIIII
IA2I24I4444A4A4A4444444A4A44444IIIIIIIIIIIIIIIIIIIIIIIIIIIIIIIII
IA2I24I4444A4A4A444A444A4A44444II444IIIIIIIIIIIIIIIIIIIIIIIIIIII
IA2I24I4444A4A4A444A4A4A4A44444II44444IIIIIIIIIIIIIIIIIIIIIIIIII
IA2I24I4444A4A4A444A4A4A4A444444I444444II4IIIIIIIIIIIIIIIIIIIIII
IA2I24I4444A4A4A444A4A4A4A4444444444444444I4IIIIIIIIIIIIIIIIIIII
IA2I24I4444A4A4A4A4A4A4A4A4444444444444444I4IIIIIIIIIIIIIIIIIIII
IA2A24I4444A4A4A4A4A4A4A4A4444444444444444I4IIIIIIIIIIIIIIIIIIII
IA2A2A44444A4A4A4A4A4A4A4A4444444444444444I4IIIIIIIIIIIIIIIIIIII
IA2A2A4A444A4A4A4A4A4A4A4A4444444444444444I4IIIIIIIIIIIIIIIIIIII
IIIIIIIIIIIIIIIIIA44444444III4III4444IIIIIIIIIIIIIIIIIIIIIIIIIII
IIIIIIIIIIIIIIIIIA4A44444444I4I4I444444IIIIIIIIIIIIIIIIIIIIIIIII
IIIIIIIIIIIIIIIIIA4A44444444A4I44444444III44IIIIIIIIIIIIIIIIIIII
IIIIIIIIIIIIIIIIIA4A44444A44A4I4444444444444I4IIIIIIIIIIIIIIIIII
IIIIIIIIIIIIIIIIIA4A44444A4AA4I4444444444444I4I4IIIIIIIIIIIIIIII
IIIIIIIA4II4I4I4IA4A44444A4AA4I4444444444444I4I4IIIIIIIIIIIIIIII
IIIIIIIA4A44I4I4IA4A44444A4AA4I4444444444444I4I4IIIIIIIIIIIIIIII
IA4II4I4I4I4I4I4I444IIIIIIIIIIIIIIIIIIIIIIIIIIIIIIIIIIIIIIIIIIII
IA2II4I444I4444444444IIIIIIIIIIIIIIIIIIIIIIIIIIIIIIIIIIIIIIIIIII
IA2A24I4444444444444444IIIIIIIIIIIIIIIIIIIIIIIIIIIIIIIIIIIIIIIII
IA2AI4I4444444444444444IIIIIIIIIIIIIIIIIIIIIIIIIIIIIIIIIIIIIIIII
IIIIIIIIIA444444I4IIIIIIIIIIIIIIIIIIIIIIIIIIIIIIIIIIIIIIIIIIIIII
IIIIIIIIIA4A444444I4IIIIIIIIIIIIIIIIIIIIIIIIIIIIIIIIIIIIIIIIIIII
IIIIIIIIIA4A444444I4IIIIIIIIA44I4I4I444I444I4IIIIIIIIIIIIIIIIIII
IIIIIIIIIA4A444444I4IIIIIIIII44I4I4I444I444I4IIIIIIIIIIIIIIIIIII
IIIIIIIIIA4A444444I4IIIA244444444444444I444I4IIIIIIIIIIIIIIIIIII
IIIIIIIIIA4A444444I4IIIA2A2444444444444I444I4IIIIIIIIIIIIIIIIIII
IIIIIIIIIIIA2I4444444II4444444IIIIIIIIIIIIIIIIIIIIIIIIIIIIIIIIII
IIIIIIIIIIIA2A244444444444444444IIIIIIIIIIIIIIIIIIIIIIIIIIIIIIII
IIIIIIIIIIIA2A2A4444444444444444IIIIIIIIIIIIIIIIIIIIIIIIIIIIIIII
IIIIIIIIIIIA2AIA4444444444444444IIIIIIIIIIIIIIIIIIIIIIIIIIIIIIII
IIIIIIIIIIIAIAIA4444444444444444IIIIIIIIIIIIIIIIIIIIIIIIIIIIIIII
IIIIIIIIIIIAIAII4444444444444444IIIIIIIIIIIIIIIIIIIIIIIIIIIIIIII
IIIIIIIIIIIIIIIIIIIA244444444II44IIII44IIIIIIIIIIIIIIIIIIIIIIIII
IIIIIIIIIIIIIIIIIIIA2A2444444444444II4444IIIIIIIIIIIIIIIIIIIIIII
IIIIIIIIIIIIIIIIIIIA2I2444444444444II4444IIIIIIIIIIIIIIIIIIIIIII
IIIIIIIIIIIIIIIIIIIAII2444444444444II4444IIIIIIIIIIIIIIIIIIIIIII
IIIIIIIIIIIIIIIIIIIAIA2444444444444I444444IIIIIIIIIIIIIIIIIIIIII
IIIIIIIIIIIIIIIIIIIAIA2A24444444444I44444444IIIIIIIIIIIIIIIIIIII
IIIIIIIIIIIIIIIIIIIIIA2A24444444444I44444444IIIIIIIIIIIIIIIIIIII
IIIIIIIIIIIIIIIIIIIIIAIA24444444444I44444444IIIIIIIIIIIIIIIIIIII
IIIIIIIIIIIIIIIA4II4IA4A24444444444I44444444IIIIIIIIIIIIIIIIIIII
IIIIIIIIIIIIIIIA4A44IA4A24444444444444444444IIIIIIIIIIIIIIIIIIII
IIIA4II4I444IIIA4A44IA4A24444444444444444444IIIIIIIIIIIIIIIIIIII
IIIA4A44I44444IA4A444A4A24444444444444444444IIIIIIIIIIIIIIIIIIII
IIIA4A44I44444IA4A444A4A2A244444444444444444IIIIIIIIIIIIIIIIIIII
IIIA4A44I44444IA4A444A4A2A2A2444444444444444IIIIIIIIIIIIIIIIIIII
IIIA4A4A444444IA4A444A4A2A2A2444444444444444IIIIIIIIIIIIIIIIIIII
IIIA4A4A4A44444A4A444A4A2A2A2444444444444444IIIIIIIIIIIIIIIIIIII
IA4II444I4III44II4IIIIIIIIIIIIIIIIIIIIIIIIIIIIIIIIIIIIIIIIIIIIII
IA4IIA444444I444I4IIIIIIIIIIIIIIIIIIIIIIIIIIIIIIIIIIIIIIIIIIIIII
IA4IIA4A44444444I4IIIIIIIIIIIIIIIIIIIIIIIIIIIIIIIIIIIIIIIIIIIIII
IA4III4A44444444I4IIIIIIIIIIIIIIIIIIIIIIIIIIIIIIIIIIIIIIIIIIIIII
IA4444I4444444I444IIIIIIIIIIIIIIIIIIIIIIIIIIIIIIIIIIIIIIIIIIIIII
IA4A4444444444I444IIIIIIIIIIIIIIIIIIIIIIIIIIIIIIIIIIIIIIIIIIIIII
II4A4444444444I444IIIIIIIIIIIIIIIIIIIIIIIIIIIIIIIIIIIIIIIIIIIIII
II4I4444444444I444IIIIIIIIIIIIIIIIIIIIIIIIIIIIIIIIIIIIIIIIIIIIII
IIIIIIIIIIIIIIIIIIIIIIIA4444IIIIIIIIIIIIIIIIIIIIIIIIIIIIIIIIIIII
IIIIIIIIIIIIIIIIIIIIIIIA4A4444IIIIIIIIIIIIIIIIIIIIIIIIIIIIIIIIII
IA4444IIIIIIIIIIIIIIIIIA4A4444IIIIIIIIIIIIIIIIIIIIIIIIIIIIIIIIII
IA4A4444IIIIIIIIIIIIIIIA4A4444IIIIIIIIIIIIIIIIIIIIIIIIIIIIIIIIII
II4A4444IIIIIIIIIIIIIIIA4A4444IIIIIIIIIIIIIIIIIIIIIIIIIIIIIIIIII
II4A4444IIIIIIIIIIIIIIIA4A44444444IIIIIIIIIIIIIIIIIIIIIIIIIIIIII
II4A4444IIIIIIIIIIIIIIIA4A4444444444IIIIIIIIIIIIIIIIIIIIIIIIIIII
IIIIIIIIIIIA2I44444444I444I4I4IIIIIIIIIIIIIIIIIIIIIIIIIIIIIIIIII
IIIIIIIIIIIA2A24444444444444I4I4IIIIIIIIIIIIIIIIIIIIIIIIIIIIIIII
IIIIIIIIIIIA2A24444444444444I444IIIIIIIIIIIIIIIIIIIIIIIIIIIIIIII
IIIIIIIIIIIA2A2A44444444444444444IIIIIIIIIIIIIIIIIIIIIIIIIIIIIII
IIIIIIIIIIIA2A2A444A4444444444444II4IIIIIIIIIIIIIIIIIIIIIIIIIIII
IIIIIIIIIIIA2A2A444A4A44444444444444I4IIIIIIIIIIIIIIIIIIIIIIIIII
IIIIIIIIIIIA2A2A444A4A4A444444444444I4IIIIIIIIIIIIIIIIIIIIIIIIII
IIIIIIIIIIIA2A2A4A4A4A4A444444444444I4IIIIIIIIIIIIIIIIIIIIIIIIII
IIIA4I44444A2A2A4A4A4A4A444444444444I4IIIIIIIIIIIIIIIIIIIIIIIIII
IIIA4A44444A2A2A4A4A4A4A444444444444I4IIIIIIIIIIIIIIIIIIIIIIIIII
IIIA4A24444A2A2A4A4A4A4A444444444444I4IIIIIIIIIIIIIIIIIIIIIIIIII
IIIA4A2A244A2A2A4A4A4A4A444444444444I4IIIIIIIIIIIIIIIIIIIIIIIIII
IIIA4A2A244A2A2A4A4A4A4I444444444444I4IIIIIIIIIIIIIIIIIIIIIIIIII
IIIA4I2A244A2A2A4A4A4A4I444444444444I4IIIIIIIIIIIIIIIIIIIIIIIIII
IIIA4I2AI44A2A2A4A4A4A4I444444444444I4IIIIIIIIIIIIIIIIIIIIIIIIII
IIIA4IIAI44A2A2A4A4A4A4I444444444444I4IIIIIIIIIIIIIIIIIIIIIIIIII
IIIA4IIAI44A2A2I4A4A4A4I444444444444I4IIIIIIIIIIIIIIIIIIIIIIIIII
IIIA4IIAI44A2A2I4I4A4A4I444444444444I4IIIIIIIIIIIIIIIIIIIIIIIIII
IIIIIIIIIIIIIIIIIA4444444444444I4III4IIIIIIIIIIIIIIIIIIIIIIIIIII
IIIIIIIIIIIIIIIIIA4A4444444444444I4I4I4IIIIIIIIIIIIIIIIIIIIIIIII
IIIIIIIIIA4II4I4IA4A4444444444444I4I4I4IIIIIIIIIIIIIIIIIIIIIIIII
IIIIIIIIIA4A44I4IA4A4444444444444I4I4I4IIIIIIIIIIIIIIIIIIIIIIIII
IIIIIIIIIA4A44I4IA4A44444444A4444I444I4I4IIIIIIIIIIIIIIIIIIIIIII
IIIIIIIIIA4A44I4IA4A44444A44A4444444444444I4IIIIIIIIIIIIIIIIIIII
IIIIIIIIIA4A44I4IA4A44444A4AA444444444444444I4IIIIIIIIIIIIIIIIII
IIIIIIIA4A4A44I44A4A44444A4AA444444444444444I4IIIIIIIIIIIIIIIIII
IA4II4I4IIIII4I4III444IIIIIIIIIIIIIIIIIIIIIIIIIIIIIIIIIIIIIIIIII
IA44I4I4III444I4I4I444IIIIIIIIIIIIIIIIIIIIIIIIIIIIIIIIIIIIIIIIII
IA4A44I4I4I44444I4I444I4IIIIIIIIIIIIIIIIIIIIIIIIIIIIIIIIIIIIIIII
IA4A44I4I4I44444I4I444IA4444IIIIIIIIIIIIIIIIIIIIIIIIIIIIIIIIIIII
IA4A44I4I4I44444I4I444IA4A4444IIIIIIIIIIIIIIIIIIIIIIIIIIIIIIIIII
IIIIIIIIIIIA4II4444444III4I4I4IIIIIIIIIIIIIIIIIIIIIIIIIIIIIIIIII
IIIIIIIIIIIA4A4444444444I4I4I4I4IIIIIIIIIIIIIIIIIIIIIIIIIIIIIIII
IIIIIIIIIIIA4A4444444444I44444444IIIIIIIIIIIIIIIIIIIIIIIIIIIIIII
IIIIIIIIIIIA4A4A44444444I4444444444IIIIIIIIIIIIIIIIIIIIIIIIIIIII
IIIIIIIIIIIIIIIIIIIA444444IIIII44I444IIIIIIIIIIIIIIIIIIIIIIIIIII
IIIIIIIIIIIIIIIIIIIA4A444444III44444444IIIIIIIIIIIIIIIIIIIIIIIII
IIIIIIIIIIIIIIIIIIIA4A444444I4444444444444IIIIIIIIIIIIIIIIIIIIII
IIIIIIIIIIIIIIIIIIIA4A4A44444444444444444444IIIIIIIIIIIIIIIIIIII
IIIIIIIIIIIIIIIA4IIA4A4A44444444444444444444IIIIIIIIIIIIIIIIIIII
IIIIIIIIIIIIIIIA4A4A4A4A44444444444444444444IIIIIIIIIIIIIIIIIIII
IIIA4II4444IIIIA4A4A4A4A44444444444444444444IIIIIIIIIIIIIIIIIIII
IIIA4A4444444IIA4A4A4A4A44444444444444444444IIIIIIIIIIIIIIIIIIII
IIIA4A2444444IIA4A4A4A4A44444444444444444444IIIIIIIIIIIIIIIIIIII
IIIA4A2A244444IA4A4A4A4A44444444444444444444IIIIIIIIIIIIIIIIIIII
IIIA4A2A244444IA4A4A4I4A44444444444444444444IIIIIIIIIIIIIIIIIIII
IIIA4A2A244444IA4A2A4I4A44444444444444444444IIIIIIIIIIIIIIIIIIII
IIIA4A2A244444IA4A2A244A44444444444444444444IIIIIIIIIIIIIIIIIIII
IIIA4A2A244444IA4I2A244A44444444444444444444IIIIIIIIIIIIIIIIIIII
IIIA4A2A2A44444A442A244A44444444444444444444IIIIIIIIIIIIIIIIIIII
IIIA4A2A2A4A444A442A244A44444444444444444444IIIIIIIIIIIIIIIIIIII
IIIA4A2A2A4A444A442A244A4444A44444444444444444IIIIIIIIIIIIIIIIII
IA4A4A2A2A4A444A442A244A4444A44444444444444444IIIIIIIIIIIIIIIIII
II4A4A2A2A4A444A442A244A4444A44444444444444444IIIIIIIIIIIIIIIIII
IIIIIIIIIIIIIIIIIIIIIIIA2444I44444IIIIIIIIIIIIIIIIIIIIIIIIIIIIII
IIIIIIIIIIIIIIIIIIIIIIIA2A2444444444IIIIIIIIIIIIIIIIIIIIIIIIIIII
IIIIIIIIIIIIIIIIIIIIIIIA2AI444444444IIIIIIIIIIIIIIIIIIIIIIIIIIII
IIIIIIIIIIIA4II4I4I4444444IIIIIIIIIIIIIIIIIIIIIIIIIIIIIIIIIIIIII
IIIIIIIIIIIA4A44I4I444444444II44IIIIIIIIIIIIIIIIIIIIIIIIIIIIIIII
IIIIIIIIIIIA4A44I4I4444444444444I4IIIIIIIIIIIIIIIIIIIIIIIIIIIIII
IIIIIIIIIIIA4A4A44I444444444444444I4IIIIIIIIIIIIIIIIIIIIIIIIIIII
[MLOP] Prefetch Degree Mean: 9.34339
[MLOP] Prefetch Degree SD: 4.67679
[MLOP] Max Score Left Mean (%): 28.74484
[MLOP] Max Score Left SD (%): 18.66299
[MLOP] Max Score Right Mean (%): 73.00418
[MLOP] Max Score Right SD (%): 11.52240

Channel_0_RQ_row_buffer_hit 1303500
Channel_0_RQ_row_buffer_miss 6742799
Channel_0_WQ_row_buffer_hit 78284
Channel_0_WQ_row_buffer_miss 582001
Channel_0_WQ_full 0
Channel_0_dbus_congested 4175867

Channel_1_RQ_row_buffer_hit 1322094
Channel_1_RQ_row_buffer_miss 6824990
Channel_1_WQ_row_buffer_hit 79430
Channel_1_WQ_row_buffer_miss 584812
Channel_1_WQ_full 0
Channel_1_dbus_congested 4216477

avg_congested_cycle 10

DRAM_bw_pochs 1951796
DRAM_bw_level_0 715276
DRAM_bw_level_1 528686
DRAM_bw_level_2 366982
DRAM_bw_level_3 340852
