*************************************************
   ChampSim Multicore Out-of-Order Simulator
   Last compiled: Mar 31 2025 20:14:32
*************************************************
parsing config file: /data3/config/nopref.ini

trace_0 /data3/CASSANDRA/traces/cassandra_phase5_core0.trace.xz
trace_1 /data3/CASSANDRA/traces/cassandra_phase5_core1.trace.xz
trace_2 /data3/CASSANDRA/traces/cassandra_phase5_core2.trace.xz
trace_3 /data3/CASSANDRA/traces/cassandra_phase5_core3.trace.xz
adding L2C_PREFETCHER: NONE
adding L2C_PREFETCHER: NONE
adding L2C_PREFETCHER: NONE
adding L2C_PREFETCHER: NONE
Initialize SHIP state
warmup_instructions 50000000
simulation_instructions 150000000
champsim_seed 8762
measure_ipc 0
measure_ipc_epoch 1000
measure_dram_bw 1
measure_dram_bw_epoch 256
measure_cache_acc 1
measure_cache_acc_epoch 1024
l1d_perfect 0
l2c_perfect 0
llc_perfect 0
l1d_semi_perfect 0
l2c_semi_perfect 0
llc_semi_perfect 0
semi_perfect_cache_page_buffer_size 64

num_cpus 4
cpu_freq 4000
dram_io_freq 2400
page_size 4096
block_size 64
max_read_per_cycle 8
max_fill_per_cycle 1
dram_channels 2
log2_dram_channels 1
dram_ranks 1
dram_banks 8
dram_rows 65536
dram_columns 128
dram_row_size 8
dram_size 8192
dram_pages 2097152

fetch_width 6
decode_width 6
exec_width 4
lq_width 2
sq_width 2
retire_width 4
scheduler_size 128
branch_mispredict_penalty 20
rob_size 256
lq_size 72
sq_size 56
num_instr_destinations_sparc 4
num_instr_destinations 2
num_instr_sources 4

itlb_set 16
itlb_way 8
itlb_rq_size 16
itlb_wq_size 16
itlb_pq_size 0
itlb_mshr_size 8
itlb_latency 1

dtlb_set 16
dtlb_way 4
dtlb_rq_size 16
dtlb_wq_size 16
dtlb_pq_size 0
dtlb_mshr_size 8
dtlb_latency 1

stlb_set 128
stlb_way 12
stlb_rq_size 32
stlb_wq_size 32
stlb_pq_size 0
stlb_mshr_size 16
stlb_latency 8

l1i_size 32
l1i_set 64
l1i_way 8
l1i_rq_size 64
l1i_wq_size 64
l1i_pq_size 8
l1i_mshr_size 8
l1i_latency 1

l1d_size 32
l1d_set 64
l1d_way 8
l1d_rq_size 64
l1d_wq_size 64
l1d_pq_size 8
l1d_mshr_size 16
l1d_latency 4

l2c_size 256
l2c_set 512
l2c_way 8
l2c_rq_size 32
l2c_wq_size 32
l2c_pq_size 32
l2c_mshr_size 32
l2c_latency 10

llc_size 8192
llc_set 8192
llc_way 16
llc_rq_size 128
llc_wq_size 128
llc_pq_size 128
llc_mshr_size 256
llc_latency 20

dram_channel_width 8
dram_wq_size 64
dram_rq_size 64
tRP 15
tRCD 15
tCAS 12.5
dram_dbus_turn_around_time 30
dram_write_high_wm 56
dram_write_low_wm 48
min_dram_writes_per_switch 16
dram_mtps 2400
dram_dbus_return_time 13


Heartbeat CPU  1 instructions:    1000001 cycles:     372404 heartbeat IPC: 2.68526 cumulative IPC: 2.68526 (Simulation time: 0 hr 0 min 6 sec) 
Heartbeat CPU  3 instructions:    1000002 cycles:     395447 heartbeat IPC: 2.52879 cumulative IPC: 2.52879 (Simulation time: 0 hr 0 min 7 sec) 
Heartbeat CPU  2 instructions:    1000000 cycles:     466962 heartbeat IPC: 2.14150 cumulative IPC: 2.14150 (Simulation time: 0 hr 0 min 7 sec) 
Heartbeat CPU  0 instructions:    1000003 cycles:     522740 heartbeat IPC: 1.91300 cumulative IPC: 1.91300 (Simulation time: 0 hr 0 min 8 sec) 
Heartbeat CPU  1 instructions:    2000003 cycles:     684778 heartbeat IPC: 3.20130 cumulative IPC: 2.92066 (Simulation time: 0 hr 0 min 11 sec) 
Heartbeat CPU  3 instructions:    2000003 cycles:     725683 heartbeat IPC: 3.02814 cumulative IPC: 2.75603 (Simulation time: 0 hr 0 min 12 sec) 
Heartbeat CPU  0 instructions:    2000000 cycles:     875005 heartbeat IPC: 2.83876 cumulative IPC: 2.28570 (Simulation time: 0 hr 0 min 14 sec) 
Heartbeat CPU  2 instructions:    2000001 cycles:     940330 heartbeat IPC: 2.11252 cumulative IPC: 2.12691 (Simulation time: 0 hr 0 min 15 sec) 
Heartbeat CPU  1 instructions:    3000000 cycles:    1036722 heartbeat IPC: 2.84135 cumulative IPC: 2.89374 (Simulation time: 0 hr 0 min 17 sec) 
Heartbeat CPU  3 instructions:    3000003 cycles:    1094950 heartbeat IPC: 2.70807 cumulative IPC: 2.73985 (Simulation time: 0 hr 0 min 18 sec) 
Heartbeat CPU  0 instructions:    3000001 cycles:    1200965 heartbeat IPC: 3.06786 cumulative IPC: 2.49799 (Simulation time: 0 hr 0 min 20 sec) 
Heartbeat CPU  1 instructions:    4000000 cycles:    1362679 heartbeat IPC: 3.06789 cumulative IPC: 2.93539 (Simulation time: 0 hr 0 min 22 sec) 
Heartbeat CPU  2 instructions:    3000002 cycles:    1379175 heartbeat IPC: 2.27871 cumulative IPC: 2.17522 (Simulation time: 0 hr 0 min 23 sec) 
Heartbeat CPU  3 instructions:    4000000 cycles:    1425765 heartbeat IPC: 3.02283 cumulative IPC: 2.80551 (Simulation time: 0 hr 0 min 24 sec) 
Heartbeat CPU  0 instructions:    4000000 cycles:    1530183 heartbeat IPC: 3.03750 cumulative IPC: 2.61407 (Simulation time: 0 hr 0 min 25 sec) 
Heartbeat CPU  1 instructions:    5000003 cycles:    1688397 heartbeat IPC: 3.07015 cumulative IPC: 2.96139 (Simulation time: 0 hr 0 min 28 sec) 
Heartbeat CPU  2 instructions:    4000000 cycles:    1707212 heartbeat IPC: 3.04843 cumulative IPC: 2.34300 (Simulation time: 0 hr 0 min 28 sec) 
Heartbeat CPU  0 instructions:    5000003 cycles:    1903077 heartbeat IPC: 2.68174 cumulative IPC: 2.62733 (Simulation time: 0 hr 0 min 31 sec) 
Heartbeat CPU  3 instructions:    5000001 cycles:    1935723 heartbeat IPC: 1.96095 cumulative IPC: 2.58301 (Simulation time: 0 hr 0 min 32 sec) 
Heartbeat CPU  1 instructions:    6000003 cycles:    2025206 heartbeat IPC: 2.96904 cumulative IPC: 2.96266 (Simulation time: 0 hr 0 min 33 sec) 
Heartbeat CPU  2 instructions:    5000003 cycles:    2092478 heartbeat IPC: 2.59562 cumulative IPC: 2.38951 (Simulation time: 0 hr 0 min 34 sec) 
Heartbeat CPU  0 instructions:    6000001 cycles:    2232372 heartbeat IPC: 3.03678 cumulative IPC: 2.68772 (Simulation time: 0 hr 0 min 36 sec) 
Heartbeat CPU  3 instructions:    6000003 cycles:    2259597 heartbeat IPC: 3.08763 cumulative IPC: 2.65534 (Simulation time: 0 hr 0 min 37 sec) 
Heartbeat CPU  2 instructions:    6000002 cycles:    2464216 heartbeat IPC: 2.69006 cumulative IPC: 2.43485 (Simulation time: 0 hr 0 min 39 sec) 
Heartbeat CPU  1 instructions:    7000003 cycles:    2545547 heartbeat IPC: 1.92182 cumulative IPC: 2.74990 (Simulation time: 0 hr 0 min 41 sec) 
Heartbeat CPU  3 instructions:    7000001 cycles:    2644255 heartbeat IPC: 2.59971 cumulative IPC: 2.64725 (Simulation time: 0 hr 0 min 43 sec) 
Heartbeat CPU  0 instructions:    7000002 cycles:    2677326 heartbeat IPC: 2.24743 cumulative IPC: 2.61455 (Simulation time: 0 hr 0 min 43 sec) 
Heartbeat CPU  2 instructions:    7000000 cycles:    2817648 heartbeat IPC: 2.82939 cumulative IPC: 2.48434 (Simulation time: 0 hr 0 min 47 sec) 
Heartbeat CPU  3 instructions:    8000000 cycles:    2979577 heartbeat IPC: 2.98221 cumulative IPC: 2.68494 (Simulation time: 0 hr 0 min 49 sec) 
Heartbeat CPU  1 instructions:    8000000 cycles:    2990230 heartbeat IPC: 2.24879 cumulative IPC: 2.67538 (Simulation time: 0 hr 0 min 49 sec) 
Heartbeat CPU  0 instructions:    8000000 cycles:    3008709 heartbeat IPC: 3.01765 cumulative IPC: 2.65895 (Simulation time: 0 hr 0 min 50 sec) 
Heartbeat CPU  2 instructions:    8000000 cycles:    3146359 heartbeat IPC: 3.04219 cumulative IPC: 2.54262 (Simulation time: 0 hr 0 min 51 sec) 
Heartbeat CPU  3 instructions:    9000002 cycles:    3308582 heartbeat IPC: 3.03947 cumulative IPC: 2.72020 (Simulation time: 0 hr 0 min 54 sec) 
Heartbeat CPU  0 instructions:    9000001 cycles:    3444062 heartbeat IPC: 2.29699 cumulative IPC: 2.61319 (Simulation time: 0 hr 0 min 57 sec) 
Heartbeat CPU  1 instructions:    9000000 cycles:    3465679 heartbeat IPC: 2.10328 cumulative IPC: 2.59689 (Simulation time: 0 hr 0 min 57 sec) 
Heartbeat CPU  2 instructions:    9000003 cycles:    3517037 heartbeat IPC: 2.69777 cumulative IPC: 2.55897 (Simulation time: 0 hr 0 min 58 sec) 
Heartbeat CPU  3 instructions:   10000001 cycles:    3675527 heartbeat IPC: 2.72520 cumulative IPC: 2.72070 (Simulation time: 0 hr 1 min 0 sec) 
Heartbeat CPU  0 instructions:   10000003 cycles:    3767823 heartbeat IPC: 3.08870 cumulative IPC: 2.65405 (Simulation time: 0 hr 1 min 2 sec) 
Heartbeat CPU  2 instructions:   10000002 cycles:    3904163 heartbeat IPC: 2.58314 cumulative IPC: 2.56137 (Simulation time: 0 hr 1 min 4 sec) 
Heartbeat CPU  1 instructions:   10000001 cycles:    3944578 heartbeat IPC: 2.08812 cumulative IPC: 2.53513 (Simulation time: 0 hr 1 min 5 sec) 
Heartbeat CPU  3 instructions:   11000001 cycles:    4090530 heartbeat IPC: 2.40962 cumulative IPC: 2.68914 (Simulation time: 0 hr 1 min 6 sec) 
Heartbeat CPU  0 instructions:   11000000 cycles:    4205786 heartbeat IPC: 2.28329 cumulative IPC: 2.61544 (Simulation time: 0 hr 1 min 8 sec) 
Heartbeat CPU  2 instructions:   11000001 cycles:    4251485 heartbeat IPC: 2.87917 cumulative IPC: 2.58733 (Simulation time: 0 hr 1 min 9 sec) 
Heartbeat CPU  1 instructions:   11000002 cycles:    4479322 heartbeat IPC: 1.87006 cumulative IPC: 2.45573 (Simulation time: 0 hr 1 min 13 sec) 
Heartbeat CPU  3 instructions:   12000000 cycles:    4556246 heartbeat IPC: 2.14723 cumulative IPC: 2.63375 (Simulation time: 0 hr 1 min 14 sec) 
Heartbeat CPU  2 instructions:   12000000 cycles:    4592155 heartbeat IPC: 2.93539 cumulative IPC: 2.61315 (Simulation time: 0 hr 1 min 15 sec) 
Heartbeat CPU  0 instructions:   12000000 cycles:    4631143 heartbeat IPC: 2.35097 cumulative IPC: 2.59115 (Simulation time: 0 hr 1 min 16 sec) 
Heartbeat CPU  1 instructions:   12000000 cycles:    4785779 heartbeat IPC: 3.26309 cumulative IPC: 2.50743 (Simulation time: 0 hr 1 min 19 sec) 
Heartbeat CPU  3 instructions:   13000000 cycles:    4887240 heartbeat IPC: 3.02120 cumulative IPC: 2.65999 (Simulation time: 0 hr 1 min 21 sec) 
Heartbeat CPU  2 instructions:   13000002 cycles:    4914959 heartbeat IPC: 3.09786 cumulative IPC: 2.64499 (Simulation time: 0 hr 1 min 21 sec) 
Heartbeat CPU  0 instructions:   13000000 cycles:    4963608 heartbeat IPC: 3.00784 cumulative IPC: 2.61906 (Simulation time: 0 hr 1 min 22 sec) 
Heartbeat CPU  1 instructions:   13000001 cycles:    5110333 heartbeat IPC: 3.08115 cumulative IPC: 2.54387 (Simulation time: 0 hr 1 min 25 sec) 
Heartbeat CPU  3 instructions:   14000002 cycles:    5264291 heartbeat IPC: 2.65217 cumulative IPC: 2.65943 (Simulation time: 0 hr 1 min 27 sec) 
Heartbeat CPU  0 instructions:   14000003 cycles:    5300750 heartbeat IPC: 2.96612 cumulative IPC: 2.64114 (Simulation time: 0 hr 1 min 28 sec) 
Heartbeat CPU  2 instructions:   14000002 cycles:    5469154 heartbeat IPC: 1.80442 cumulative IPC: 2.55981 (Simulation time: 0 hr 1 min 30 sec) 
Heartbeat CPU  1 instructions:   14000003 cycles:    5582479 heartbeat IPC: 2.11799 cumulative IPC: 2.50785 (Simulation time: 0 hr 1 min 32 sec) 
Heartbeat CPU  3 instructions:   15000001 cycles:    5586387 heartbeat IPC: 3.10466 cumulative IPC: 2.68510 (Simulation time: 0 hr 1 min 32 sec) 
Heartbeat CPU  0 instructions:   15000003 cycles:    5625915 heartbeat IPC: 3.07536 cumulative IPC: 2.66623 (Simulation time: 0 hr 1 min 33 sec) 
Heartbeat CPU  2 instructions:   15000002 cycles:    5812625 heartbeat IPC: 2.91145 cumulative IPC: 2.58059 (Simulation time: 0 hr 1 min 36 sec) 
Heartbeat CPU  3 instructions:   16000000 cycles:    5970471 heartbeat IPC: 2.60359 cumulative IPC: 2.67986 (Simulation time: 0 hr 1 min 39 sec) 
Heartbeat CPU  0 instructions:   16000000 cycles:    5989920 heartbeat IPC: 2.74721 cumulative IPC: 2.67115 (Simulation time: 0 hr 1 min 39 sec) 
Heartbeat CPU  1 instructions:   15000000 cycles:    6034677 heartbeat IPC: 2.21141 cumulative IPC: 2.48563 (Simulation time: 0 hr 1 min 40 sec) 
Heartbeat CPU  2 instructions:   16000000 cycles:    6134079 heartbeat IPC: 3.11086 cumulative IPC: 2.60838 (Simulation time: 0 hr 1 min 42 sec) 
Heartbeat CPU  3 instructions:   17000002 cycles:    6294888 heartbeat IPC: 3.08246 cumulative IPC: 2.70060 (Simulation time: 0 hr 1 min 45 sec) 
Heartbeat CPU  0 instructions:   17000002 cycles:    6320807 heartbeat IPC: 3.02219 cumulative IPC: 2.68953 (Simulation time: 0 hr 1 min 45 sec) 
Heartbeat CPU  1 instructions:   16000000 cycles:    6368735 heartbeat IPC: 2.99349 cumulative IPC: 2.51227 (Simulation time: 0 hr 1 min 46 sec) 
Heartbeat CPU  2 instructions:   17000000 cycles:    6528264 heartbeat IPC: 2.53688 cumulative IPC: 2.60406 (Simulation time: 0 hr 1 min 48 sec) 
Heartbeat CPU  0 instructions:   18000003 cycles:    6674977 heartbeat IPC: 2.82351 cumulative IPC: 2.69664 (Simulation time: 0 hr 1 min 51 sec) 
Heartbeat CPU  3 instructions:   18000003 cycles:    6688491 heartbeat IPC: 2.54063 cumulative IPC: 2.69119 (Simulation time: 0 hr 1 min 51 sec) 
Heartbeat CPU  1 instructions:   17000001 cycles:    6716219 heartbeat IPC: 2.87783 cumulative IPC: 2.53119 (Simulation time: 0 hr 1 min 51 sec) 
Heartbeat CPU  0 instructions:   19000000 cycles:    6998910 heartbeat IPC: 3.08705 cumulative IPC: 2.71471 (Simulation time: 0 hr 1 min 56 sec) 
Heartbeat CPU  3 instructions:   19000001 cycles:    7055919 heartbeat IPC: 2.72162 cumulative IPC: 2.69277 (Simulation time: 0 hr 1 min 57 sec) 
Heartbeat CPU  2 instructions:   18000000 cycles:    7072974 heartbeat IPC: 1.83584 cumulative IPC: 2.54490 (Simulation time: 0 hr 1 min 57 sec) 
Heartbeat CPU  1 instructions:   18000002 cycles:    7086280 heartbeat IPC: 2.70226 cumulative IPC: 2.54012 (Simulation time: 0 hr 1 min 57 sec) 
Heartbeat CPU  0 instructions:   20000000 cycles:    7350689 heartbeat IPC: 2.84269 cumulative IPC: 2.72083 (Simulation time: 0 hr 2 min 2 sec) 
Heartbeat CPU  3 instructions:   20000000 cycles:    7380387 heartbeat IPC: 3.08196 cumulative IPC: 2.70988 (Simulation time: 0 hr 2 min 2 sec) 
Heartbeat CPU  1 instructions:   19000002 cycles:    7514080 heartbeat IPC: 2.33754 cumulative IPC: 2.52859 (Simulation time: 0 hr 2 min 4 sec) 
Heartbeat CPU  2 instructions:   19000001 cycles:    7514347 heartbeat IPC: 2.26566 cumulative IPC: 2.52850 (Simulation time: 0 hr 2 min 4 sec) 
Heartbeat CPU  0 instructions:   21000001 cycles:    7662587 heartbeat IPC: 3.20618 cumulative IPC: 2.74059 (Simulation time: 0 hr 2 min 6 sec) 
Heartbeat CPU  1 instructions:   20000000 cycles:    7859009 heartbeat IPC: 2.89914 cumulative IPC: 2.54485 (Simulation time: 0 hr 2 min 10 sec) 
Heartbeat CPU  3 instructions:   21000002 cycles:    7872303 heartbeat IPC: 2.03287 cumulative IPC: 2.66758 (Simulation time: 0 hr 2 min 10 sec) 
Heartbeat CPU  2 instructions:   20000000 cycles:    7943592 heartbeat IPC: 2.32967 cumulative IPC: 2.51775 (Simulation time: 0 hr 2 min 11 sec) 
Heartbeat CPU  0 instructions:   22000002 cycles:    8076212 heartbeat IPC: 2.41765 cumulative IPC: 2.72405 (Simulation time: 0 hr 2 min 13 sec) 
Heartbeat CPU  3 instructions:   22000000 cycles:    8198947 heartbeat IPC: 3.06143 cumulative IPC: 2.68327 (Simulation time: 0 hr 2 min 15 sec) 
Heartbeat CPU  2 instructions:   21000002 cycles:    8271565 heartbeat IPC: 3.04904 cumulative IPC: 2.53882 (Simulation time: 0 hr 2 min 16 sec) 
Heartbeat CPU  1 instructions:   21000000 cycles:    8347419 heartbeat IPC: 2.04746 cumulative IPC: 2.51575 (Simulation time: 0 hr 2 min 17 sec) 
Heartbeat CPU  0 instructions:   23000001 cycles:    8496505 heartbeat IPC: 2.37929 cumulative IPC: 2.70700 (Simulation time: 0 hr 2 min 20 sec) 
Heartbeat CPU  2 instructions:   22000003 cycles:    8595949 heartbeat IPC: 3.08277 cumulative IPC: 2.55935 (Simulation time: 0 hr 2 min 22 sec) 
Heartbeat CPU  3 instructions:   23000001 cycles:    8629712 heartbeat IPC: 2.32145 cumulative IPC: 2.66521 (Simulation time: 0 hr 2 min 23 sec) 
Heartbeat CPU  1 instructions:   22000002 cycles:    8674568 heartbeat IPC: 3.05672 cumulative IPC: 2.53615 (Simulation time: 0 hr 2 min 24 sec) 
Heartbeat CPU  0 instructions:   24000000 cycles:    8821583 heartbeat IPC: 3.07618 cumulative IPC: 2.72060 (Simulation time: 0 hr 2 min 26 sec) 
Heartbeat CPU  2 instructions:   23000003 cycles:    8922344 heartbeat IPC: 3.06377 cumulative IPC: 2.57780 (Simulation time: 0 hr 2 min 28 sec) 
Heartbeat CPU  1 instructions:   23000001 cycles:    8995885 heartbeat IPC: 3.11219 cumulative IPC: 2.55672 (Simulation time: 0 hr 2 min 29 sec) 
Heartbeat CPU  0 instructions:   25000003 cycles:    9158272 heartbeat IPC: 2.97011 cumulative IPC: 2.72977 (Simulation time: 0 hr 2 min 32 sec) 
Heartbeat CPU  3 instructions:   24000000 cycles:    9339242 heartbeat IPC: 1.40938 cumulative IPC: 2.56980 (Simulation time: 0 hr 2 min 34 sec) 
Heartbeat CPU  2 instructions:   24000000 cycles:    9345793 heartbeat IPC: 2.36155 cumulative IPC: 2.56800 (Simulation time: 0 hr 2 min 34 sec) 
Heartbeat CPU  1 instructions:   24000000 cycles:    9391853 heartbeat IPC: 2.52545 cumulative IPC: 2.55541 (Simulation time: 0 hr 2 min 35 sec) 
Heartbeat CPU  0 instructions:   26000000 cycles:    9603683 heartbeat IPC: 2.24511 cumulative IPC: 2.70729 (Simulation time: 0 hr 2 min 39 sec) 
Heartbeat CPU  2 instructions:   25000001 cycles:    9667714 heartbeat IPC: 3.10636 cumulative IPC: 2.58593 (Simulation time: 0 hr 2 min 40 sec) 
Heartbeat CPU  1 instructions:   25000000 cycles:    9721945 heartbeat IPC: 3.02946 cumulative IPC: 2.57150 (Simulation time: 0 hr 2 min 41 sec) 
Heartbeat CPU  3 instructions:   25000000 cycles:    9813121 heartbeat IPC: 2.11024 cumulative IPC: 2.54761 (Simulation time: 0 hr 2 min 43 sec) 
Heartbeat CPU  0 instructions:   27000001 cycles:    9964730 heartbeat IPC: 2.76973 cumulative IPC: 2.70956 (Simulation time: 0 hr 2 min 46 sec) 
Heartbeat CPU  2 instructions:   26000003 cycles:    9990036 heartbeat IPC: 3.10249 cumulative IPC: 2.60259 (Simulation time: 0 hr 2 min 46 sec) 
Heartbeat CPU  1 instructions:   26000000 cycles:   10081985 heartbeat IPC: 2.77747 cumulative IPC: 2.57886 (Simulation time: 0 hr 2 min 48 sec) 
Heartbeat CPU  3 instructions:   26000002 cycles:   10298547 heartbeat IPC: 2.06005 cumulative IPC: 2.52463 (Simulation time: 0 hr 2 min 51 sec) 
Heartbeat CPU  0 instructions:   28000000 cycles:   10315457 heartbeat IPC: 2.85122 cumulative IPC: 2.71437 (Simulation time: 0 hr 2 min 51 sec) 
Heartbeat CPU  2 instructions:   27000002 cycles:   10319969 heartbeat IPC: 3.03092 cumulative IPC: 2.61629 (Simulation time: 0 hr 2 min 51 sec) 
Heartbeat CPU  1 instructions:   27000001 cycles:   10516094 heartbeat IPC: 2.30357 cumulative IPC: 2.56749 (Simulation time: 0 hr 2 min 55 sec) 
Heartbeat CPU  0 instructions:   29000000 cycles:   10638714 heartbeat IPC: 3.09351 cumulative IPC: 2.72589 (Simulation time: 0 hr 2 min 57 sec) 
Heartbeat CPU  2 instructions:   28000000 cycles:   10673662 heartbeat IPC: 2.82731 cumulative IPC: 2.62328 (Simulation time: 0 hr 2 min 58 sec) 
Heartbeat CPU  3 instructions:   27000002 cycles:   10693224 heartbeat IPC: 2.53372 cumulative IPC: 2.52496 (Simulation time: 0 hr 2 min 58 sec) 
Heartbeat CPU  1 instructions:   28000000 cycles:   10932843 heartbeat IPC: 2.39952 cumulative IPC: 2.56109 (Simulation time: 0 hr 3 min 2 sec) 
Heartbeat CPU  2 instructions:   29000000 cycles:   10996587 heartbeat IPC: 3.09669 cumulative IPC: 2.63718 (Simulation time: 0 hr 3 min 3 sec) 
Heartbeat CPU  0 instructions:   30000003 cycles:   11117663 heartbeat IPC: 2.08791 cumulative IPC: 2.69841 (Simulation time: 0 hr 3 min 4 sec) 
Heartbeat CPU  3 instructions:   28000000 cycles:   11160306 heartbeat IPC: 2.14095 cumulative IPC: 2.50889 (Simulation time: 0 hr 3 min 5 sec) 
Heartbeat CPU  1 instructions:   29000000 cycles:   11305823 heartbeat IPC: 2.68111 cumulative IPC: 2.56505 (Simulation time: 0 hr 3 min 8 sec) 
Heartbeat CPU  2 instructions:   30000002 cycles:   11317955 heartbeat IPC: 3.11170 cumulative IPC: 2.65066 (Simulation time: 0 hr 3 min 8 sec) 
Heartbeat CPU  0 instructions:   31000003 cycles:   11435379 heartbeat IPC: 3.14746 cumulative IPC: 2.71089 (Simulation time: 0 hr 3 min 10 sec) 
Heartbeat CPU  3 instructions:   29000000 cycles:   11495775 heartbeat IPC: 2.98090 cumulative IPC: 2.52267 (Simulation time: 0 hr 3 min 11 sec) 
Heartbeat CPU  1 instructions:   30000000 cycles:   11632912 heartbeat IPC: 3.05727 cumulative IPC: 2.57889 (Simulation time: 0 hr 3 min 14 sec) 
Heartbeat CPU  2 instructions:   31000000 cycles:   11641217 heartbeat IPC: 3.09346 cumulative IPC: 2.66295 (Simulation time: 0 hr 3 min 14 sec) 
Heartbeat CPU  0 instructions:   32000000 cycles:   11758978 heartbeat IPC: 3.09024 cumulative IPC: 2.72132 (Simulation time: 0 hr 3 min 16 sec) 
Heartbeat CPU  3 instructions:   30000000 cycles:   11826896 heartbeat IPC: 3.02004 cumulative IPC: 2.53659 (Simulation time: 0 hr 3 min 17 sec) 
Heartbeat CPU  1 instructions:   31000003 cycles:   11948154 heartbeat IPC: 3.17218 cumulative IPC: 2.59454 (Simulation time: 0 hr 3 min 19 sec) 
Heartbeat CPU  3 instructions:   31000000 cycles:   12155924 heartbeat IPC: 3.03925 cumulative IPC: 2.55020 (Simulation time: 0 hr 3 min 22 sec) 
Heartbeat CPU  2 instructions:   32000000 cycles:   12157581 heartbeat IPC: 1.93662 cumulative IPC: 2.63210 (Simulation time: 0 hr 3 min 22 sec) 
Heartbeat CPU  0 instructions:   33000003 cycles:   12180222 heartbeat IPC: 2.37393 cumulative IPC: 2.70931 (Simulation time: 0 hr 3 min 23 sec) 
Heartbeat CPU  1 instructions:   32000000 cycles:   12272437 heartbeat IPC: 3.08372 cumulative IPC: 2.60747 (Simulation time: 0 hr 3 min 24 sec) 
Heartbeat CPU  2 instructions:   33000000 cycles:   12546987 heartbeat IPC: 2.56801 cumulative IPC: 2.63011 (Simulation time: 0 hr 3 min 29 sec) 
Heartbeat CPU  3 instructions:   32000000 cycles:   12552530 heartbeat IPC: 2.52139 cumulative IPC: 2.54929 (Simulation time: 0 hr 3 min 29 sec) 
Heartbeat CPU  0 instructions:   34000003 cycles:   12562913 heartbeat IPC: 2.61307 cumulative IPC: 2.70638 (Simulation time: 0 hr 3 min 29 sec) 
Heartbeat CPU  1 instructions:   33000000 cycles:   12608880 heartbeat IPC: 2.97227 cumulative IPC: 2.61720 (Simulation time: 0 hr 3 min 30 sec) 
Heartbeat CPU  3 instructions:   33000002 cycles:   12908925 heartbeat IPC: 2.80588 cumulative IPC: 2.55637 (Simulation time: 0 hr 3 min 35 sec) 
Heartbeat CPU  0 instructions:   35000000 cycles:   12917886 heartbeat IPC: 2.81711 cumulative IPC: 2.70942 (Simulation time: 0 hr 3 min 36 sec) 
Heartbeat CPU  2 instructions:   34000000 cycles:   12946265 heartbeat IPC: 2.50452 cumulative IPC: 2.62624 (Simulation time: 0 hr 3 min 36 sec) 
Heartbeat CPU  1 instructions:   34000000 cycles:   13055837 heartbeat IPC: 2.23735 cumulative IPC: 2.60420 (Simulation time: 0 hr 3 min 38 sec) 
Heartbeat CPU  3 instructions:   34000003 cycles:   13293460 heartbeat IPC: 2.60055 cumulative IPC: 2.55765 (Simulation time: 0 hr 3 min 41 sec) 
Heartbeat CPU  2 instructions:   35000003 cycles:   13303527 heartbeat IPC: 2.79907 cumulative IPC: 2.63088 (Simulation time: 0 hr 3 min 41 sec) 
Heartbeat CPU  0 instructions:   36000000 cycles:   13315546 heartbeat IPC: 2.51471 cumulative IPC: 2.70361 (Simulation time: 0 hr 3 min 42 sec) 
Heartbeat CPU  1 instructions:   35000001 cycles:   13588871 heartbeat IPC: 1.87605 cumulative IPC: 2.57564 (Simulation time: 0 hr 3 min 46 sec) 
Heartbeat CPU  2 instructions:   36000000 cycles:   13676430 heartbeat IPC: 2.68165 cumulative IPC: 2.63227 (Simulation time: 0 hr 3 min 48 sec) 
Heartbeat CPU  3 instructions:   35000000 cycles:   13682833 heartbeat IPC: 2.56822 cumulative IPC: 2.55795 (Simulation time: 0 hr 3 min 48 sec) 
Heartbeat CPU  0 instructions:   37000002 cycles:   13706176 heartbeat IPC: 2.55997 cumulative IPC: 2.69951 (Simulation time: 0 hr 3 min 48 sec) 
Heartbeat CPU  3 instructions:   36000000 cycles:   14017494 heartbeat IPC: 2.98810 cumulative IPC: 2.56822 (Simulation time: 0 hr 3 min 54 sec) 
Heartbeat CPU  1 instructions:   36000000 cycles:   14063366 heartbeat IPC: 2.10750 cumulative IPC: 2.55984 (Simulation time: 0 hr 3 min 55 sec) 
Heartbeat CPU  0 instructions:   38000002 cycles:   14132090 heartbeat IPC: 2.34789 cumulative IPC: 2.68892 (Simulation time: 0 hr 3 min 56 sec) 
Heartbeat CPU  2 instructions:   37000002 cycles:   14158362 heartbeat IPC: 2.07499 cumulative IPC: 2.61330 (Simulation time: 0 hr 3 min 56 sec) 
Heartbeat CPU  3 instructions:   37000000 cycles:   14341271 heartbeat IPC: 3.08855 cumulative IPC: 2.57997 (Simulation time: 0 hr 3 min 59 sec) 
Heartbeat CPU  0 instructions:   39000002 cycles:   14506758 heartbeat IPC: 2.66903 cumulative IPC: 2.68840 (Simulation time: 0 hr 4 min 2 sec) 
Heartbeat CPU  2 instructions:   38000003 cycles:   14578101 heartbeat IPC: 2.38244 cumulative IPC: 2.60665 (Simulation time: 0 hr 4 min 3 sec) 
Heartbeat CPU  3 instructions:   38000000 cycles:   14658720 heartbeat IPC: 3.15011 cumulative IPC: 2.59231 (Simulation time: 0 hr 4 min 5 sec) 
Heartbeat CPU  1 instructions:   37000003 cycles:   14826653 heartbeat IPC: 1.31013 cumulative IPC: 2.49551 (Simulation time: 0 hr 4 min 7 sec) 
Heartbeat CPU  0 instructions:   40000000 cycles:   14831345 heartbeat IPC: 3.08083 cumulative IPC: 2.69699 (Simulation time: 0 hr 4 min 7 sec) 
Heartbeat CPU  2 instructions:   39000003 cycles:   14903075 heartbeat IPC: 3.07717 cumulative IPC: 2.61691 (Simulation time: 0 hr 4 min 9 sec) 
Heartbeat CPU  3 instructions:   39000002 cycles:   14982802 heartbeat IPC: 3.08564 cumulative IPC: 2.60298 (Simulation time: 0 hr 4 min 10 sec) 
Heartbeat CPU  1 instructions:   38000003 cycles:   15150460 heartbeat IPC: 3.08826 cumulative IPC: 2.50817 (Simulation time: 0 hr 4 min 13 sec) 
Heartbeat CPU  0 instructions:   41000001 cycles:   15203988 heartbeat IPC: 2.68354 cumulative IPC: 2.69666 (Simulation time: 0 hr 4 min 14 sec) 
Heartbeat CPU  2 instructions:   40000000 cycles:   15227120 heartbeat IPC: 3.08598 cumulative IPC: 2.62689 (Simulation time: 0 hr 4 min 14 sec) 
Heartbeat CPU  3 instructions:   40000000 cycles:   15307617 heartbeat IPC: 3.07867 cumulative IPC: 2.61308 (Simulation time: 0 hr 4 min 16 sec) 
Heartbeat CPU  1 instructions:   39000003 cycles:   15478673 heartbeat IPC: 3.04680 cumulative IPC: 2.51960 (Simulation time: 0 hr 4 min 18 sec) 
Heartbeat CPU  0 instructions:   42000002 cycles:   15521592 heartbeat IPC: 3.14858 cumulative IPC: 2.70591 (Simulation time: 0 hr 4 min 19 sec) 
Heartbeat CPU  2 instructions:   41000002 cycles:   15646965 heartbeat IPC: 2.38184 cumulative IPC: 2.62032 (Simulation time: 0 hr 4 min 21 sec) 
Heartbeat CPU  3 instructions:   41000003 cycles:   15788387 heartbeat IPC: 2.08000 cumulative IPC: 2.59685 (Simulation time: 0 hr 4 min 23 sec) 
Heartbeat CPU  0 instructions:   43000000 cycles:   15847263 heartbeat IPC: 3.07058 cumulative IPC: 2.71340 (Simulation time: 0 hr 4 min 24 sec) 
Heartbeat CPU  1 instructions:   40000000 cycles:   15877452 heartbeat IPC: 2.50765 cumulative IPC: 2.51930 (Simulation time: 0 hr 4 min 24 sec) 
Heartbeat CPU  2 instructions:   42000000 cycles:   16031897 heartbeat IPC: 2.59786 cumulative IPC: 2.61978 (Simulation time: 0 hr 4 min 27 sec) 
Heartbeat CPU  3 instructions:   42000003 cycles:   16132067 heartbeat IPC: 2.90968 cumulative IPC: 2.60351 (Simulation time: 0 hr 4 min 29 sec) 
Heartbeat CPU  0 instructions:   44000000 cycles:   16170937 heartbeat IPC: 3.08953 cumulative IPC: 2.72093 (Simulation time: 0 hr 4 min 29 sec) 
Heartbeat CPU  1 instructions:   41000003 cycles:   16298607 heartbeat IPC: 2.37443 cumulative IPC: 2.51555 (Simulation time: 0 hr 4 min 31 sec) 
Heartbeat CPU  2 instructions:   43000000 cycles:   16361244 heartbeat IPC: 3.03631 cumulative IPC: 2.62816 (Simulation time: 0 hr 4 min 32 sec) 
Heartbeat CPU  0 instructions:   45000000 cycles:   16495715 heartbeat IPC: 3.07903 cumulative IPC: 2.72798 (Simulation time: 0 hr 4 min 34 sec) 
Heartbeat CPU  3 instructions:   43000000 cycles:   16507666 heartbeat IPC: 2.66241 cumulative IPC: 2.60485 (Simulation time: 0 hr 4 min 34 sec) 
Heartbeat CPU  2 instructions:   44000000 cycles:   16716881 heartbeat IPC: 2.81186 cumulative IPC: 2.63207 (Simulation time: 0 hr 4 min 38 sec) 
Heartbeat CPU  1 instructions:   42000001 cycles:   16744493 heartbeat IPC: 2.24272 cumulative IPC: 2.50829 (Simulation time: 0 hr 4 min 38 sec) 
Heartbeat CPU  0 instructions:   46000001 cycles:   16825659 heartbeat IPC: 3.03082 cumulative IPC: 2.73392 (Simulation time: 0 hr 4 min 40 sec) 
Heartbeat CPU  3 instructions:   44000000 cycles:   16875398 heartbeat IPC: 2.71937 cumulative IPC: 2.60735 (Simulation time: 0 hr 4 min 40 sec) 
Heartbeat CPU  1 instructions:   43000001 cycles:   17096566 heartbeat IPC: 2.84032 cumulative IPC: 2.51513 (Simulation time: 0 hr 4 min 44 sec) 
Heartbeat CPU  2 instructions:   45000000 cycles:   17139880 heartbeat IPC: 2.36407 cumulative IPC: 2.62546 (Simulation time: 0 hr 4 min 45 sec) 
Heartbeat CPU  0 instructions:   47000000 cycles:   17175017 heartbeat IPC: 2.86239 cumulative IPC: 2.73653 (Simulation time: 0 hr 4 min 45 sec) 
Heartbeat CPU  3 instructions:   45000002 cycles:   17201004 heartbeat IPC: 3.07120 cumulative IPC: 2.61613 (Simulation time: 0 hr 4 min 46 sec) 
Heartbeat CPU  1 instructions:   44000000 cycles:   17421709 heartbeat IPC: 3.07557 cumulative IPC: 2.52558 (Simulation time: 0 hr 4 min 49 sec) 
Heartbeat CPU  2 instructions:   46000003 cycles:   17506173 heartbeat IPC: 2.73006 cumulative IPC: 2.62764 (Simulation time: 0 hr 4 min 51 sec) 
Heartbeat CPU  3 instructions:   46000001 cycles:   17520734 heartbeat IPC: 3.12764 cumulative IPC: 2.62546 (Simulation time: 0 hr 4 min 51 sec) 
Heartbeat CPU  0 instructions:   48000000 cycles:   17529816 heartbeat IPC: 2.81850 cumulative IPC: 2.73819 (Simulation time: 0 hr 4 min 51 sec) 
Heartbeat CPU  1 instructions:   45000002 cycles:   17772663 heartbeat IPC: 2.84938 cumulative IPC: 2.53198 (Simulation time: 0 hr 4 min 54 sec) 
Heartbeat CPU  2 instructions:   47000002 cycles:   17951661 heartbeat IPC: 2.24473 cumulative IPC: 2.61814 (Simulation time: 0 hr 4 min 57 sec) 
Heartbeat CPU  0 instructions:   49000002 cycles:   17999860 heartbeat IPC: 2.12746 cumulative IPC: 2.72224 (Simulation time: 0 hr 4 min 57 sec) 
Heartbeat CPU  1 instructions:   46000000 cycles:   18105384 heartbeat IPC: 3.00552 cumulative IPC: 2.54068 (Simulation time: 0 hr 4 min 59 sec) 
Heartbeat CPU  3 instructions:   47000002 cycles:   18111085 heartbeat IPC: 1.69391 cumulative IPC: 2.59510 (Simulation time: 0 hr 4 min 59 sec) 
Heartbeat CPU  0 instructions:   50000003 cycles:   18370744 heartbeat IPC: 2.69626 cumulative IPC: 2.72172 (Simulation time: 0 hr 5 min 2 sec) 
Heartbeat CPU  2 instructions:   48000000 cycles:   18467613 heartbeat IPC: 1.93816 cumulative IPC: 2.59914 (Simulation time: 0 hr 5 min 4 sec) 
Heartbeat CPU  3 instructions:   48000000 cycles:   18523579 heartbeat IPC: 2.42427 cumulative IPC: 2.59129 (Simulation time: 0 hr 5 min 5 sec) 
Heartbeat CPU  1 instructions:   47000001 cycles:   18531464 heartbeat IPC: 2.34698 cumulative IPC: 2.53623 (Simulation time: 0 hr 5 min 5 sec) 
Heartbeat CPU  0 instructions:   51000001 cycles:   18696283 heartbeat IPC: 3.07182 cumulative IPC: 0.05349 (Simulation time: 0 hr 5 min 8 sec) 
Heartbeat CPU  2 instructions:   49000002 cycles:   18784925 heartbeat IPC: 3.15148 cumulative IPC: 2.60847 (Simulation time: 0 hr 5 min 9 sec) 
Heartbeat CPU  1 instructions:   48000000 cycles:   18864588 heartbeat IPC: 3.00188 cumulative IPC: 2.54445 (Simulation time: 0 hr 5 min 10 sec) 
Heartbeat CPU  0 instructions:   52000000 cycles:   19018452 heartbeat IPC: 3.10396 cumulative IPC: 0.10516 (Simulation time: 0 hr 5 min 13 sec) 
Heartbeat CPU  3 instructions:   49000003 cycles:   19037397 heartbeat IPC: 1.94622 cumulative IPC: 2.57388 (Simulation time: 0 hr 5 min 13 sec) 
Heartbeat CPU  2 instructions:   50000002 cycles:   19108029 heartbeat IPC: 3.09498 cumulative IPC: 2.61670 (Simulation time: 0 hr 5 min 14 sec) 
Heartbeat CPU  1 instructions:   49000001 cycles:   19264578 heartbeat IPC: 2.50007 cumulative IPC: 2.54353 (Simulation time: 0 hr 5 min 17 sec) 
Heartbeat CPU  0 instructions:   53000002 cycles:   19343052 heartbeat IPC: 3.08072 cumulative IPC: 0.15509 (Simulation time: 0 hr 5 min 18 sec) 
Heartbeat CPU  2 instructions:   51000002 cycles:   19494237 heartbeat IPC: 2.58928 cumulative IPC: 0.05130 (Simulation time: 0 hr 5 min 20 sec) 
Heartbeat CPU  3 instructions:   50000002 cycles:   19541333 heartbeat IPC: 1.98438 cumulative IPC: 2.55868 (Simulation time: 0 hr 5 min 21 sec) 
Heartbeat CPU  1 instructions:   50000001 cycles:   19600619 heartbeat IPC: 2.97583 cumulative IPC: 2.55094 (Simulation time: 0 hr 5 min 21 sec) 

Warmup complete CPU  0 instructions:   53646316 cycles:   19600619 (Simulation time: 0 hr 5 min 21 sec) 
Warmup complete CPU  1 instructions:   50000001 cycles:   19600619 (Simulation time: 0 hr 5 min 21 sec) 
Warmup complete CPU  2 instructions:   51161141 cycles:   19600618 (Simulation time: 0 hr 5 min 21 sec) 
Warmup complete CPU  3 instructions:   50182912 cycles:   19600619 (Simulation time: 0 hr 5 min 21 sec) 

Heartbeat CPU  0 instructions:   54000001 cycles:   20736151 heartbeat IPC: 0.71782 cumulative IPC: 0.31147 (Simulation time: 0 hr 5 min 25 sec) 
Heartbeat CPU  2 instructions:   52000000 cycles:   21942190 heartbeat IPC: 0.40850 cumulative IPC: 0.35825 (Simulation time: 0 hr 5 min 28 sec) 
Heartbeat CPU  3 instructions:   51000001 cycles:   22109704 heartbeat IPC: 0.38935 cumulative IPC: 0.32565 (Simulation time: 0 hr 5 min 28 sec) 
Heartbeat CPU  1 instructions:   51000001 cycles:   22611613 heartbeat IPC: 0.33212 cumulative IPC: 0.33212 (Simulation time: 0 hr 5 min 30 sec) 
Heartbeat CPU  0 instructions:   55000000 cycles:   23632621 heartbeat IPC: 0.34525 cumulative IPC: 0.33573 (Simulation time: 0 hr 5 min 33 sec) 
Heartbeat CPU  2 instructions:   53000002 cycles:   24513609 heartbeat IPC: 0.38889 cumulative IPC: 0.37429 (Simulation time: 0 hr 5 min 35 sec) 
Heartbeat CPU  3 instructions:   52000000 cycles:   24697749 heartbeat IPC: 0.38639 cumulative IPC: 0.35649 (Simulation time: 0 hr 5 min 36 sec) 
Heartbeat CPU  1 instructions:   52000000 cycles:   25682581 heartbeat IPC: 0.32563 cumulative IPC: 0.32884 (Simulation time: 0 hr 5 min 39 sec) 
Heartbeat CPU  0 instructions:   56000000 cycles:   26617774 heartbeat IPC: 0.33499 cumulative IPC: 0.33542 (Simulation time: 0 hr 5 min 41 sec) 
Heartbeat CPU  2 instructions:   54000001 cycles:   27477678 heartbeat IPC: 0.33737 cumulative IPC: 0.36040 (Simulation time: 0 hr 5 min 43 sec) 
Heartbeat CPU  3 instructions:   53000003 cycles:   27581913 heartbeat IPC: 0.34672 cumulative IPC: 0.35296 (Simulation time: 0 hr 5 min 44 sec) 
Heartbeat CPU  1 instructions:   53000001 cycles:   28470917 heartbeat IPC: 0.35864 cumulative IPC: 0.33821 (Simulation time: 0 hr 5 min 46 sec) 
Heartbeat CPU  0 instructions:   57000002 cycles:   29216510 heartbeat IPC: 0.38480 cumulative IPC: 0.34876 (Simulation time: 0 hr 5 min 49 sec) 
Heartbeat CPU  2 instructions:   55000002 cycles:   30063599 heartbeat IPC: 0.38671 cumulative IPC: 0.36690 (Simulation time: 0 hr 5 min 51 sec) 
Heartbeat CPU  3 instructions:   54000003 cycles:   30289245 heartbeat IPC: 0.36937 cumulative IPC: 0.35712 (Simulation time: 0 hr 5 min 51 sec) 
Heartbeat CPU  1 instructions:   54000002 cycles:   31745303 heartbeat IPC: 0.30540 cumulative IPC: 0.32936 (Simulation time: 0 hr 5 min 56 sec) 
Heartbeat CPU  0 instructions:   58000000 cycles:   32032635 heartbeat IPC: 0.35510 cumulative IPC: 0.35020 (Simulation time: 0 hr 5 min 56 sec) 
Heartbeat CPU  2 instructions:   56000000 cycles:   32921888 heartbeat IPC: 0.34986 cumulative IPC: 0.36324 (Simulation time: 0 hr 5 min 59 sec) 
Heartbeat CPU  3 instructions:   55000003 cycles:   32987504 heartbeat IPC: 0.37061 cumulative IPC: 0.35984 (Simulation time: 0 hr 5 min 59 sec) 
Heartbeat CPU  1 instructions:   55000002 cycles:   34386773 heartbeat IPC: 0.37858 cumulative IPC: 0.33815 (Simulation time: 0 hr 6 min 3 sec) 
Heartbeat CPU  0 instructions:   59000002 cycles:   35329125 heartbeat IPC: 0.30335 cumulative IPC: 0.34038 (Simulation time: 0 hr 6 min 6 sec) 
Heartbeat CPU  3 instructions:   56000000 cycles:   35716443 heartbeat IPC: 0.36644 cumulative IPC: 0.36096 (Simulation time: 0 hr 6 min 7 sec) 
Heartbeat CPU  2 instructions:   57000000 cycles:   36357226 heartbeat IPC: 0.29109 cumulative IPC: 0.34845 (Simulation time: 0 hr 6 min 9 sec) 
Heartbeat CPU  1 instructions:   56000000 cycles:   36940972 heartbeat IPC: 0.39151 cumulative IPC: 0.34601 (Simulation time: 0 hr 6 min 10 sec) 
Heartbeat CPU  0 instructions:   60000000 cycles:   37780881 heartbeat IPC: 0.40787 cumulative IPC: 0.34948 (Simulation time: 0 hr 6 min 13 sec) 
Heartbeat CPU  3 instructions:   57000000 cycles:   38597281 heartbeat IPC: 0.34712 cumulative IPC: 0.35886 (Simulation time: 0 hr 6 min 15 sec) 
Heartbeat CPU  2 instructions:   58000002 cycles:   39391937 heartbeat IPC: 0.32952 cumulative IPC: 0.34555 (Simulation time: 0 hr 6 min 17 sec) 
Heartbeat CPU  1 instructions:   57000000 cycles:   40232760 heartbeat IPC: 0.30379 cumulative IPC: 0.33928 (Simulation time: 0 hr 6 min 20 sec) 
Heartbeat CPU  0 instructions:   61000001 cycles:   40785571 heartbeat IPC: 0.33281 cumulative IPC: 0.34712 (Simulation time: 0 hr 6 min 21 sec) 
Heartbeat CPU  3 instructions:   58000003 cycles:   41274924 heartbeat IPC: 0.37346 cumulative IPC: 0.36066 (Simulation time: 0 hr 6 min 23 sec) 
Heartbeat CPU  2 instructions:   59000001 cycles:   42435835 heartbeat IPC: 0.32853 cumulative IPC: 0.34328 (Simulation time: 0 hr 6 min 26 sec) 
Heartbeat CPU  1 instructions:   58000001 cycles:   43034898 heartbeat IPC: 0.35687 cumulative IPC: 0.34138 (Simulation time: 0 hr 6 min 28 sec) 
Heartbeat CPU  0 instructions:   62000002 cycles:   43405420 heartbeat IPC: 0.38170 cumulative IPC: 0.35092 (Simulation time: 0 hr 6 min 29 sec) 
Heartbeat CPU  3 instructions:   59000000 cycles:   44013492 heartbeat IPC: 0.36515 cumulative IPC: 0.36117 (Simulation time: 0 hr 6 min 31 sec) 
Heartbeat CPU  2 instructions:   60000000 cycles:   45329834 heartbeat IPC: 0.34554 cumulative IPC: 0.34353 (Simulation time: 0 hr 6 min 35 sec) 
Heartbeat CPU  1 instructions:   59000000 cycles:   45451731 heartbeat IPC: 0.41376 cumulative IPC: 0.34815 (Simulation time: 0 hr 6 min 35 sec) 
Heartbeat CPU  0 instructions:   63000003 cycles:   45970252 heartbeat IPC: 0.38989 cumulative IPC: 0.35471 (Simulation time: 0 hr 6 min 36 sec) 
Heartbeat CPU  3 instructions:   60000000 cycles:   46878386 heartbeat IPC: 0.34905 cumulative IPC: 0.35989 (Simulation time: 0 hr 6 min 39 sec) 
Heartbeat CPU  1 instructions:   60000000 cycles:   48142882 heartbeat IPC: 0.37159 cumulative IPC: 0.35036 (Simulation time: 0 hr 6 min 43 sec) 
Heartbeat CPU  2 instructions:   61000001 cycles:   48282515 heartbeat IPC: 0.33868 cumulative IPC: 0.34303 (Simulation time: 0 hr 6 min 43 sec) 
Heartbeat CPU  0 instructions:   64000000 cycles:   48628904 heartbeat IPC: 0.37613 cumulative IPC: 0.35668 (Simulation time: 0 hr 6 min 44 sec) 
Heartbeat CPU  3 instructions:   61000000 cycles:   49491302 heartbeat IPC: 0.38271 cumulative IPC: 0.36189 (Simulation time: 0 hr 6 min 47 sec) 
Heartbeat CPU  1 instructions:   61000000 cycles:   50694738 heartbeat IPC: 0.39187 cumulative IPC: 0.35376 (Simulation time: 0 hr 6 min 50 sec) 
Heartbeat CPU  2 instructions:   62000000 cycles:   51154109 heartbeat IPC: 0.34824 cumulative IPC: 0.34351 (Simulation time: 0 hr 6 min 52 sec) 
Heartbeat CPU  0 instructions:   65000003 cycles:   51275531 heartbeat IPC: 0.37784 cumulative IPC: 0.35844 (Simulation time: 0 hr 6 min 52 sec) 
Heartbeat CPU  3 instructions:   62000001 cycles:   52391503 heartbeat IPC: 0.34480 cumulative IPC: 0.36038 (Simulation time: 0 hr 6 min 55 sec) 
Heartbeat CPU  0 instructions:   66000001 cycles:   53874211 heartbeat IPC: 0.38481 cumulative IPC: 0.36044 (Simulation time: 0 hr 7 min 0 sec) 
Heartbeat CPU  2 instructions:   63000002 cycles:   53957776 heartbeat IPC: 0.35668 cumulative IPC: 0.34458 (Simulation time: 0 hr 7 min 0 sec) 
Heartbeat CPU  1 instructions:   62000000 cycles:   53993119 heartbeat IPC: 0.30318 cumulative IPC: 0.34891 (Simulation time: 0 hr 7 min 0 sec) 
Heartbeat CPU  3 instructions:   63000000 cycles:   55421328 heartbeat IPC: 0.33005 cumulative IPC: 0.35781 (Simulation time: 0 hr 7 min 4 sec) 
Heartbeat CPU  1 instructions:   63000000 cycles:   56456338 heartbeat IPC: 0.40597 cumulative IPC: 0.35273 (Simulation time: 0 hr 7 min 7 sec) 
Heartbeat CPU  0 instructions:   67000002 cycles:   56506319 heartbeat IPC: 0.37992 cumulative IPC: 0.36183 (Simulation time: 0 hr 7 min 7 sec) 
Heartbeat CPU  2 instructions:   64000000 cycles:   56686253 heartbeat IPC: 0.36650 cumulative IPC: 0.34619 (Simulation time: 0 hr 7 min 8 sec) 
Heartbeat CPU  3 instructions:   64000000 cycles:   58074745 heartbeat IPC: 0.37687 cumulative IPC: 0.35913 (Simulation time: 0 hr 7 min 12 sec) 
Heartbeat CPU  1 instructions:   64000000 cycles:   59082230 heartbeat IPC: 0.38082 cumulative IPC: 0.35460 (Simulation time: 0 hr 7 min 15 sec) 
Heartbeat CPU  2 instructions:   65000003 cycles:   59307301 heartbeat IPC: 0.38153 cumulative IPC: 0.34853 (Simulation time: 0 hr 7 min 15 sec) 
Heartbeat CPU  0 instructions:   68000000 cycles:   59397164 heartbeat IPC: 0.34592 cumulative IPC: 0.36068 (Simulation time: 0 hr 7 min 16 sec) 
Heartbeat CPU  3 instructions:   65000002 cycles:   61002440 heartbeat IPC: 0.34157 cumulative IPC: 0.35788 (Simulation time: 0 hr 7 min 20 sec) 
Heartbeat CPU  1 instructions:   65000003 cycles:   61762532 heartbeat IPC: 0.37309 cumulative IPC: 0.35577 (Simulation time: 0 hr 7 min 23 sec) 
Heartbeat CPU  2 instructions:   66000000 cycles:   61844342 heartbeat IPC: 0.39416 cumulative IPC: 0.35127 (Simulation time: 0 hr 7 min 23 sec) 
Heartbeat CPU  0 instructions:   69000003 cycles:   61886228 heartbeat IPC: 0.40176 cumulative IPC: 0.36309 (Simulation time: 0 hr 7 min 23 sec) 
Heartbeat CPU  3 instructions:   66000001 cycles:   64356641 heartbeat IPC: 0.29813 cumulative IPC: 0.35341 (Simulation time: 0 hr 7 min 30 sec) 
Heartbeat CPU  0 instructions:   70000003 cycles:   64446284 heartbeat IPC: 0.39062 cumulative IPC: 0.36467 (Simulation time: 0 hr 7 min 30 sec) 
Heartbeat CPU  1 instructions:   66000002 cycles:   65079440 heartbeat IPC: 0.30149 cumulative IPC: 0.35181 (Simulation time: 0 hr 7 min 32 sec) 
Heartbeat CPU  2 instructions:   67000000 cycles:   65166442 heartbeat IPC: 0.30101 cumulative IPC: 0.34760 (Simulation time: 0 hr 7 min 32 sec) 
Heartbeat CPU  3 instructions:   67000000 cycles:   67612937 heartbeat IPC: 0.30710 cumulative IPC: 0.35027 (Simulation time: 0 hr 7 min 39 sec) 
Heartbeat CPU  1 instructions:   67000003 cycles:   67733692 heartbeat IPC: 0.37675 cumulative IPC: 0.35319 (Simulation time: 0 hr 7 min 39 sec) 
Heartbeat CPU  0 instructions:   71000000 cycles:   67809757 heartbeat IPC: 0.29731 cumulative IPC: 0.35997 (Simulation time: 0 hr 7 min 40 sec) 
Heartbeat CPU  2 instructions:   68000000 cycles:   68100625 heartbeat IPC: 0.34081 cumulative IPC: 0.34719 (Simulation time: 0 hr 7 min 41 sec) 
Heartbeat CPU  1 instructions:   68000000 cycles:   70338090 heartbeat IPC: 0.38396 cumulative IPC: 0.35477 (Simulation time: 0 hr 7 min 47 sec) 
Heartbeat CPU  0 instructions:   72000000 cycles:   70356120 heartbeat IPC: 0.39272 cumulative IPC: 0.36161 (Simulation time: 0 hr 7 min 47 sec) 
Heartbeat CPU  3 instructions:   68000000 cycles:   70756727 heartbeat IPC: 0.31809 cumulative IPC: 0.34829 (Simulation time: 0 hr 7 min 49 sec) 
Heartbeat CPU  2 instructions:   69000000 cycles:   70890725 heartbeat IPC: 0.35841 cumulative IPC: 0.34780 (Simulation time: 0 hr 7 min 49 sec) 
Heartbeat CPU  1 instructions:   69000001 cycles:   72844144 heartbeat IPC: 0.39903 cumulative IPC: 0.35685 (Simulation time: 0 hr 7 min 55 sec) 
Heartbeat CPU  0 instructions:   73000001 cycles:   72866899 heartbeat IPC: 0.39828 cumulative IPC: 0.36334 (Simulation time: 0 hr 7 min 55 sec) 
Heartbeat CPU  3 instructions:   69000002 cycles:   73524081 heartbeat IPC: 0.36136 cumulative IPC: 0.34896 (Simulation time: 0 hr 7 min 57 sec) 
Heartbeat CPU  2 instructions:   70000000 cycles:   73653548 heartbeat IPC: 0.36195 cumulative IPC: 0.34853 (Simulation time: 0 hr 7 min 57 sec) 
Heartbeat CPU  0 instructions:   74000000 cycles:   75473353 heartbeat IPC: 0.38366 cumulative IPC: 0.36429 (Simulation time: 0 hr 8 min 2 sec) 
Heartbeat CPU  1 instructions:   70000003 cycles:   75967343 heartbeat IPC: 0.32019 cumulative IPC: 0.35482 (Simulation time: 0 hr 8 min 3 sec) 
Heartbeat CPU  3 instructions:   70000003 cycles:   76395716 heartbeat IPC: 0.34823 cumulative IPC: 0.34892 (Simulation time: 0 hr 8 min 5 sec) 
Heartbeat CPU  2 instructions:   71000001 cycles:   76663906 heartbeat IPC: 0.33219 cumulative IPC: 0.34766 (Simulation time: 0 hr 8 min 6 sec) 
Heartbeat CPU  0 instructions:   75000003 cycles:   78023406 heartbeat IPC: 0.39215 cumulative IPC: 0.36550 (Simulation time: 0 hr 8 min 10 sec) 
Heartbeat CPU  3 instructions:   71000000 cycles:   78866350 heartbeat IPC: 0.40475 cumulative IPC: 0.35125 (Simulation time: 0 hr 8 min 12 sec) 
Heartbeat CPU  1 instructions:   71000003 cycles:   78955003 heartbeat IPC: 0.33471 cumulative IPC: 0.35381 (Simulation time: 0 hr 8 min 13 sec) 
Heartbeat CPU  2 instructions:   72000000 cycles:   79212229 heartbeat IPC: 0.39241 cumulative IPC: 0.34958 (Simulation time: 0 hr 8 min 14 sec) 
Heartbeat CPU  0 instructions:   76000000 cycles:   80579360 heartbeat IPC: 0.39124 cumulative IPC: 0.36658 (Simulation time: 0 hr 8 min 18 sec) 
Heartbeat CPU  3 instructions:   72000000 cycles:   81413409 heartbeat IPC: 0.39261 cumulative IPC: 0.35295 (Simulation time: 0 hr 8 min 20 sec) 
Heartbeat CPU  1 instructions:   72000000 cycles:   81430817 heartbeat IPC: 0.40391 cumulative IPC: 0.35581 (Simulation time: 0 hr 8 min 20 sec) 
Heartbeat CPU  2 instructions:   73000003 cycles:   82037210 heartbeat IPC: 0.35399 cumulative IPC: 0.34978 (Simulation time: 0 hr 8 min 22 sec) 
Heartbeat CPU  0 instructions:   77000003 cycles:   82939601 heartbeat IPC: 0.42369 cumulative IPC: 0.36871 (Simulation time: 0 hr 8 min 25 sec) 
Heartbeat CPU  1 instructions:   73000001 cycles:   83939721 heartbeat IPC: 0.39858 cumulative IPC: 0.35748 (Simulation time: 0 hr 8 min 28 sec) 
Heartbeat CPU  3 instructions:   73000003 cycles:   84257602 heartbeat IPC: 0.35159 cumulative IPC: 0.35289 (Simulation time: 0 hr 8 min 29 sec) 
Heartbeat CPU  2 instructions:   74000003 cycles:   84951447 heartbeat IPC: 0.34314 cumulative IPC: 0.34948 (Simulation time: 0 hr 8 min 31 sec) 
Heartbeat CPU  0 instructions:   78000002 cycles:   86016328 heartbeat IPC: 0.32502 cumulative IPC: 0.36669 (Simulation time: 0 hr 8 min 34 sec) 
Heartbeat CPU  1 instructions:   74000002 cycles:   86738242 heartbeat IPC: 0.35733 cumulative IPC: 0.35747 (Simulation time: 0 hr 8 min 36 sec) 
Heartbeat CPU  3 instructions:   74000003 cycles:   87108801 heartbeat IPC: 0.35073 cumulative IPC: 0.35280 (Simulation time: 0 hr 8 min 37 sec) 
Heartbeat CPU  2 instructions:   75000000 cycles:   87580549 heartbeat IPC: 0.38036 cumulative IPC: 0.35067 (Simulation time: 0 hr 8 min 38 sec) 
Heartbeat CPU  0 instructions:   79000003 cycles:   88932665 heartbeat IPC: 0.34290 cumulative IPC: 0.36568 (Simulation time: 0 hr 8 min 42 sec) 
Heartbeat CPU  1 instructions:   75000000 cycles:   89548907 heartbeat IPC: 0.35579 cumulative IPC: 0.35741 (Simulation time: 0 hr 8 min 44 sec) 
Heartbeat CPU  3 instructions:   75000002 cycles:   89874037 heartbeat IPC: 0.36163 cumulative IPC: 0.35315 (Simulation time: 0 hr 8 min 45 sec) 
Heartbeat CPU  2 instructions:   76000000 cycles:   90176217 heartbeat IPC: 0.38526 cumulative IPC: 0.35195 (Simulation time: 0 hr 8 min 46 sec) 
Heartbeat CPU  0 instructions:   80000000 cycles:   91534902 heartbeat IPC: 0.38428 cumulative IPC: 0.36636 (Simulation time: 0 hr 8 min 50 sec) 
Heartbeat CPU  1 instructions:   76000000 cycles:   92509759 heartbeat IPC: 0.33774 cumulative IPC: 0.35661 (Simulation time: 0 hr 8 min 53 sec) 
Heartbeat CPU  3 instructions:   76000000 cycles:   92534790 heartbeat IPC: 0.37583 cumulative IPC: 0.35398 (Simulation time: 0 hr 8 min 53 sec) 
Heartbeat CPU  2 instructions:   77000000 cycles:   92625694 heartbeat IPC: 0.40825 cumulative IPC: 0.35384 (Simulation time: 0 hr 8 min 53 sec) 
Heartbeat CPU  0 instructions:   81000002 cycles:   94156741 heartbeat IPC: 0.38141 cumulative IPC: 0.36689 (Simulation time: 0 hr 8 min 57 sec) 
Heartbeat CPU  1 instructions:   77000003 cycles:   95268752 heartbeat IPC: 0.36245 cumulative IPC: 0.35682 (Simulation time: 0 hr 9 min 1 sec) 
Heartbeat CPU  2 instructions:   78000000 cycles:   95280873 heartbeat IPC: 0.37662 cumulative IPC: 0.35463 (Simulation time: 0 hr 9 min 1 sec) 
Heartbeat CPU  3 instructions:   77000001 cycles:   95655966 heartbeat IPC: 0.32039 cumulative IPC: 0.35260 (Simulation time: 0 hr 9 min 2 sec) 
Heartbeat CPU  0 instructions:   82000003 cycles:   96657831 heartbeat IPC: 0.39983 cumulative IPC: 0.36796 (Simulation time: 0 hr 9 min 5 sec) 
Heartbeat CPU  1 instructions:   78000000 cycles:   97695175 heartbeat IPC: 0.41213 cumulative IPC: 0.35854 (Simulation time: 0 hr 9 min 8 sec) 
Heartbeat CPU  2 instructions:   79000003 cycles:   97948189 heartbeat IPC: 0.37491 cumulative IPC: 0.35533 (Simulation time: 0 hr 9 min 9 sec) 
Heartbeat CPU  3 instructions:   78000002 cycles:   98833016 heartbeat IPC: 0.31476 cumulative IPC: 0.35108 (Simulation time: 0 hr 9 min 11 sec) 
Heartbeat CPU  0 instructions:   83000003 cycles:   99267591 heartbeat IPC: 0.38318 cumulative IPC: 0.36845 (Simulation time: 0 hr 9 min 13 sec) 
Heartbeat CPU  1 instructions:   79000002 cycles:  100248227 heartbeat IPC: 0.39169 cumulative IPC: 0.35959 (Simulation time: 0 hr 9 min 16 sec) 
Heartbeat CPU  2 instructions:   80000000 cycles:  100576037 heartbeat IPC: 0.38054 cumulative IPC: 0.35614 (Simulation time: 0 hr 9 min 17 sec) 
Heartbeat CPU  3 instructions:   79000003 cycles:  101669493 heartbeat IPC: 0.35255 cumulative IPC: 0.35113 (Simulation time: 0 hr 9 min 20 sec) 
Heartbeat CPU  0 instructions:   84000000 cycles:  101956473 heartbeat IPC: 0.37190 cumulative IPC: 0.36857 (Simulation time: 0 hr 9 min 21 sec) 
Heartbeat CPU  1 instructions:   80000000 cycles:  102870562 heartbeat IPC: 0.38134 cumulative IPC: 0.36027 (Simulation time: 0 hr 9 min 23 sec) 
Heartbeat CPU  2 instructions:   81000000 cycles:  103424048 heartbeat IPC: 0.35112 cumulative IPC: 0.35597 (Simulation time: 0 hr 9 min 25 sec) 
Heartbeat CPU  3 instructions:   80000000 cycles:  104309809 heartbeat IPC: 0.37874 cumulative IPC: 0.35199 (Simulation time: 0 hr 9 min 27 sec) 
Heartbeat CPU  0 instructions:   85000001 cycles:  105018107 heartbeat IPC: 0.32662 cumulative IPC: 0.36706 (Simulation time: 0 hr 9 min 29 sec) 
Heartbeat CPU  1 instructions:   81000000 cycles:  105542175 heartbeat IPC: 0.37431 cumulative IPC: 0.36071 (Simulation time: 0 hr 9 min 31 sec) 
Heartbeat CPU  2 instructions:   82000002 cycles:  105848685 heartbeat IPC: 0.41243 cumulative IPC: 0.35756 (Simulation time: 0 hr 9 min 32 sec) 
Heartbeat CPU  3 instructions:   81000001 cycles:  106977264 heartbeat IPC: 0.37489 cumulative IPC: 0.35269 (Simulation time: 0 hr 9 min 35 sec) 
Heartbeat CPU  0 instructions:   86000001 cycles:  108131052 heartbeat IPC: 0.32124 cumulative IPC: 0.36545 (Simulation time: 0 hr 9 min 39 sec) 
Heartbeat CPU  2 instructions:   83000002 cycles:  108346739 heartbeat IPC: 0.40031 cumulative IPC: 0.35876 (Simulation time: 0 hr 9 min 40 sec) 
Heartbeat CPU  1 instructions:   82000003 cycles:  108962716 heartbeat IPC: 0.29235 cumulative IPC: 0.35809 (Simulation time: 0 hr 9 min 42 sec) 
Heartbeat CPU  3 instructions:   82000002 cycles:  109826144 heartbeat IPC: 0.35102 cumulative IPC: 0.35264 (Simulation time: 0 hr 9 min 44 sec) 
Heartbeat CPU  0 instructions:   87000000 cycles:  110611343 heartbeat IPC: 0.40318 cumulative IPC: 0.36648 (Simulation time: 0 hr 9 min 47 sec) 
Heartbeat CPU  2 instructions:   84000000 cycles:  110779487 heartbeat IPC: 0.41106 cumulative IPC: 0.36016 (Simulation time: 0 hr 9 min 48 sec) 
Heartbeat CPU  1 instructions:   83000002 cycles:  111754219 heartbeat IPC: 0.35823 cumulative IPC: 0.35810 (Simulation time: 0 hr 9 min 51 sec) 
Heartbeat CPU  3 instructions:   83000003 cycles:  112427632 heartbeat IPC: 0.38440 cumulative IPC: 0.35353 (Simulation time: 0 hr 9 min 53 sec) 
Heartbeat CPU  2 instructions:   85000001 cycles:  113266274 heartbeat IPC: 0.40213 cumulative IPC: 0.36127 (Simulation time: 0 hr 9 min 56 sec) 
Heartbeat CPU  0 instructions:   88000000 cycles:  113387195 heartbeat IPC: 0.36025 cumulative IPC: 0.36630 (Simulation time: 0 hr 9 min 56 sec) 
Heartbeat CPU  1 instructions:   84000000 cycles:  114617594 heartbeat IPC: 0.34924 cumulative IPC: 0.35783 (Simulation time: 0 hr 10 min 1 sec) 
Heartbeat CPU  3 instructions:   84000000 cycles:  115043972 heartbeat IPC: 0.38221 cumulative IPC: 0.35432 (Simulation time: 0 hr 10 min 2 sec) 
Heartbeat CPU  0 instructions:   89000001 cycles:  115937577 heartbeat IPC: 0.39210 cumulative IPC: 0.36698 (Simulation time: 0 hr 10 min 5 sec) 
Heartbeat CPU  2 instructions:   86000002 cycles:  116263411 heartbeat IPC: 0.33365 cumulative IPC: 0.36042 (Simulation time: 0 hr 10 min 6 sec) 
Heartbeat CPU  1 instructions:   85000001 cycles:  117424138 heartbeat IPC: 0.35631 cumulative IPC: 0.35779 (Simulation time: 0 hr 10 min 10 sec) 
Heartbeat CPU  3 instructions:   85000000 cycles:  117671454 heartbeat IPC: 0.38059 cumulative IPC: 0.35502 (Simulation time: 0 hr 10 min 11 sec) 
Heartbeat CPU  2 instructions:   87000002 cycles:  119061250 heartbeat IPC: 0.35742 cumulative IPC: 0.36033 (Simulation time: 0 hr 10 min 15 sec) 
Heartbeat CPU  0 instructions:   90000002 cycles:  119273867 heartbeat IPC: 0.29973 cumulative IPC: 0.36473 (Simulation time: 0 hr 10 min 16 sec) 
Heartbeat CPU  3 instructions:   86000003 cycles:  120447471 heartbeat IPC: 0.36023 cumulative IPC: 0.35516 (Simulation time: 0 hr 10 min 20 sec) 
Heartbeat CPU  1 instructions:   86000003 cycles:  121142821 heartbeat IPC: 0.26891 cumulative IPC: 0.35453 (Simulation time: 0 hr 10 min 22 sec) 
Heartbeat CPU  2 instructions:   88000000 cycles:  121544256 heartbeat IPC: 0.40274 cumulative IPC: 0.36136 (Simulation time: 0 hr 10 min 23 sec) 
Heartbeat CPU  0 instructions:   91000000 cycles:  121914863 heartbeat IPC: 0.37864 cumulative IPC: 0.36509 (Simulation time: 0 hr 10 min 24 sec) 
Heartbeat CPU  2 instructions:   89000000 cycles:  124094090 heartbeat IPC: 0.39218 cumulative IPC: 0.36212 (Simulation time: 0 hr 10 min 30 sec) 
Heartbeat CPU  0 instructions:   92000000 cycles:  124450801 heartbeat IPC: 0.39433 cumulative IPC: 0.36580 (Simulation time: 0 hr 10 min 31 sec) 
Heartbeat CPU  3 instructions:   87000001 cycles:  124701953 heartbeat IPC: 0.23505 cumulative IPC: 0.35030 (Simulation time: 0 hr 10 min 31 sec) 
Heartbeat CPU  2 instructions:   90000003 cycles:  126453800 heartbeat IPC: 0.42378 cumulative IPC: 0.36348 (Simulation time: 0 hr 10 min 37 sec) 
Heartbeat CPU  1 instructions:   87000000 cycles:  126581668 heartbeat IPC: 0.18386 cumulative IPC: 0.34586 (Simulation time: 0 hr 10 min 37 sec) 
Heartbeat CPU  0 instructions:   93000002 cycles:  127091149 heartbeat IPC: 0.37874 cumulative IPC: 0.36611 (Simulation time: 0 hr 10 min 39 sec) 
Heartbeat CPU  3 instructions:   88000000 cycles:  128543897 heartbeat IPC: 0.26028 cumulative IPC: 0.34713 (Simulation time: 0 hr 10 min 42 sec) 
Heartbeat CPU  2 instructions:   91000000 cycles:  129494882 heartbeat IPC: 0.32883 cumulative IPC: 0.36252 (Simulation time: 0 hr 10 min 45 sec) 
Heartbeat CPU  0 instructions:   94000002 cycles:  129814989 heartbeat IPC: 0.36713 cumulative IPC: 0.36614 (Simulation time: 0 hr 10 min 46 sec) 
Heartbeat CPU  3 instructions:   89000003 cycles:  131121433 heartbeat IPC: 0.38797 cumulative IPC: 0.34807 (Simulation time: 0 hr 10 min 49 sec) 
Heartbeat CPU  2 instructions:   92000000 cycles:  132469699 heartbeat IPC: 0.33616 cumulative IPC: 0.36183 (Simulation time: 0 hr 10 min 53 sec) 
Heartbeat CPU  0 instructions:   95000002 cycles:  132504821 heartbeat IPC: 0.37177 cumulative IPC: 0.36627 (Simulation time: 0 hr 10 min 53 sec) 
Heartbeat CPU  1 instructions:   88000000 cycles:  133037832 heartbeat IPC: 0.15489 cumulative IPC: 0.33499 (Simulation time: 0 hr 10 min 55 sec) 
Heartbeat CPU  3 instructions:   90000001 cycles:  133596005 heartbeat IPC: 0.40411 cumulative IPC: 0.34929 (Simulation time: 0 hr 10 min 56 sec) 
Heartbeat CPU  0 instructions:   96000000 cycles:  135046658 heartbeat IPC: 0.39342 cumulative IPC: 0.36687 (Simulation time: 0 hr 11 min 0 sec) 
Heartbeat CPU  2 instructions:   93000001 cycles:  135375885 heartbeat IPC: 0.34409 cumulative IPC: 0.36138 (Simulation time: 0 hr 11 min 1 sec) 
Heartbeat CPU  3 instructions:   91000001 cycles:  136159250 heartbeat IPC: 0.39013 cumulative IPC: 0.35019 (Simulation time: 0 hr 11 min 3 sec) 
Heartbeat CPU  0 instructions:   97000002 cycles:  137659247 heartbeat IPC: 0.38276 cumulative IPC: 0.36722 (Simulation time: 0 hr 11 min 7 sec) 
Heartbeat CPU  2 instructions:   94000003 cycles:  138134388 heartbeat IPC: 0.36252 cumulative IPC: 0.36141 (Simulation time: 0 hr 11 min 9 sec) 
Heartbeat CPU  1 instructions:   89000000 cycles:  138551339 heartbeat IPC: 0.18137 cumulative IPC: 0.32787 (Simulation time: 0 hr 11 min 10 sec) 
Heartbeat CPU  3 instructions:   92000000 cycles:  139554627 heartbeat IPC: 0.29452 cumulative IPC: 0.34861 (Simulation time: 0 hr 11 min 13 sec) 
Heartbeat CPU  0 instructions:   98000002 cycles:  141090998 heartbeat IPC: 0.29140 cumulative IPC: 0.36508 (Simulation time: 0 hr 11 min 17 sec) 
Heartbeat CPU  1 instructions:   90000000 cycles:  141128374 heartbeat IPC: 0.38804 cumulative IPC: 0.32914 (Simulation time: 0 hr 11 min 17 sec) 
Heartbeat CPU  2 instructions:   95000001 cycles:  141434981 heartbeat IPC: 0.30298 cumulative IPC: 0.35982 (Simulation time: 0 hr 11 min 18 sec) 
Heartbeat CPU  3 instructions:   93000000 cycles:  142411170 heartbeat IPC: 0.35007 cumulative IPC: 0.34864 (Simulation time: 0 hr 11 min 21 sec) 
Heartbeat CPU  0 instructions:   99000001 cycles:  143734044 heartbeat IPC: 0.37835 cumulative IPC: 0.36536 (Simulation time: 0 hr 11 min 25 sec) 
Heartbeat CPU  2 instructions:   96000000 cycles:  143965029 heartbeat IPC: 0.39525 cumulative IPC: 0.36054 (Simulation time: 0 hr 11 min 26 sec) 
Heartbeat CPU  1 instructions:   91000000 cycles:  144222179 heartbeat IPC: 0.32323 cumulative IPC: 0.32900 (Simulation time: 0 hr 11 min 26 sec) 
*** Reached end of trace for Core: 0 Repeating trace: /data3/CASSANDRA/traces/cassandra_phase5_core0.trace.xz
Heartbeat CPU  0 instructions:  100000000 cycles:  146283465 heartbeat IPC: 0.39225 cumulative IPC: 0.36590 (Simulation time: 0 hr 11 min 32 sec) 
Heartbeat CPU  2 instructions:   97000003 cycles:  146427143 heartbeat IPC: 0.40616 cumulative IPC: 0.36143 (Simulation time: 0 hr 11 min 32 sec) 
Heartbeat CPU  3 instructions:   94000000 cycles:  147023745 heartbeat IPC: 0.21680 cumulative IPC: 0.34387 (Simulation time: 0 hr 11 min 34 sec) 
Heartbeat CPU  1 instructions:   92000000 cycles:  147207915 heartbeat IPC: 0.33493 cumulative IPC: 0.32913 (Simulation time: 0 hr 11 min 34 sec) 
Heartbeat CPU  2 instructions:   98000001 cycles:  149089580 heartbeat IPC: 0.37560 cumulative IPC: 0.36172 (Simulation time: 0 hr 11 min 40 sec) 
Heartbeat CPU  0 instructions:  101000000 cycles:  149353086 heartbeat IPC: 0.32577 cumulative IPC: 0.36495 (Simulation time: 0 hr 11 min 41 sec) 
Heartbeat CPU  1 instructions:   93000002 cycles:  149756740 heartbeat IPC: 0.39234 cumulative IPC: 0.33037 (Simulation time: 0 hr 11 min 42 sec) 
Heartbeat CPU  3 instructions:   95000003 cycles:  150408246 heartbeat IPC: 0.29547 cumulative IPC: 0.34262 (Simulation time: 0 hr 11 min 44 sec) 
Heartbeat CPU  0 instructions:  102000002 cycles:  151912769 heartbeat IPC: 0.39067 cumulative IPC: 0.36545 (Simulation time: 0 hr 11 min 47 sec) 
Heartbeat CPU  2 instructions:   99000002 cycles:  152442635 heartbeat IPC: 0.29824 cumulative IPC: 0.36012 (Simulation time: 0 hr 11 min 49 sec) 
Heartbeat CPU  3 instructions:   96000000 cycles:  153298467 heartbeat IPC: 0.34599 cumulative IPC: 0.34269 (Simulation time: 0 hr 11 min 51 sec) 
Heartbeat CPU  1 instructions:   94000000 cycles:  154356965 heartbeat IPC: 0.21738 cumulative IPC: 0.32652 (Simulation time: 0 hr 11 min 54 sec) 
Heartbeat CPU  0 instructions:  103000001 cycles:  154409829 heartbeat IPC: 0.40047 cumulative IPC: 0.36610 (Simulation time: 0 hr 11 min 54 sec) 
*** Reached end of trace for Core: 2 Repeating trace: /data3/CASSANDRA/traces/cassandra_phase5_core2.trace.xz
Heartbeat CPU  2 instructions:  100000000 cycles:  155354841 heartbeat IPC: 0.34338 cumulative IPC: 0.35976 (Simulation time: 0 hr 11 min 57 sec) 
Heartbeat CPU  3 instructions:   97000001 cycles:  156078444 heartbeat IPC: 0.35972 cumulative IPC: 0.34304 (Simulation time: 0 hr 11 min 59 sec) 
Heartbeat CPU  0 instructions:  104000000 cycles:  156948506 heartbeat IPC: 0.39391 cumulative IPC: 0.36661 (Simulation time: 0 hr 12 min 1 sec) 
Heartbeat CPU  2 instructions:  101000000 cycles:  158309158 heartbeat IPC: 0.33849 cumulative IPC: 0.35931 (Simulation time: 0 hr 12 min 4 sec) 
Heartbeat CPU  3 instructions:   98000003 cycles:  158927330 heartbeat IPC: 0.35102 cumulative IPC: 0.34320 (Simulation time: 0 hr 12 min 6 sec) 
Heartbeat CPU  0 instructions:  105000000 cycles:  159743581 heartbeat IPC: 0.35777 cumulative IPC: 0.36644 (Simulation time: 0 hr 12 min 8 sec) 
Heartbeat CPU  1 instructions:   95000000 cycles:  160183722 heartbeat IPC: 0.17162 cumulative IPC: 0.32010 (Simulation time: 0 hr 12 min 9 sec) 
Heartbeat CPU  2 instructions:  102000002 cycles:  161338315 heartbeat IPC: 0.33013 cumulative IPC: 0.35868 (Simulation time: 0 hr 12 min 13 sec) 
Heartbeat CPU  3 instructions:   99000003 cycles:  161762679 heartbeat IPC: 0.35269 cumulative IPC: 0.34339 (Simulation time: 0 hr 12 min 14 sec) 
Heartbeat CPU  0 instructions:  106000003 cycles:  162345023 heartbeat IPC: 0.38440 cumulative IPC: 0.36677 (Simulation time: 0 hr 12 min 15 sec) 
Heartbeat CPU  1 instructions:   96000000 cycles:  163501703 heartbeat IPC: 0.30139 cumulative IPC: 0.31966 (Simulation time: 0 hr 12 min 18 sec) 
*** Reached end of trace for Core: 3 Repeating trace: /data3/CASSANDRA/traces/cassandra_phase5_core3.trace.xz
Heartbeat CPU  3 instructions:  100000000 cycles:  164587495 heartbeat IPC: 0.35400 cumulative IPC: 0.34360 (Simulation time: 0 hr 12 min 21 sec) 
Heartbeat CPU  2 instructions:  103000002 cycles:  164679459 heartbeat IPC: 0.29930 cumulative IPC: 0.35732 (Simulation time: 0 hr 12 min 21 sec) 
Heartbeat CPU  0 instructions:  107000002 cycles:  165483011 heartbeat IPC: 0.31868 cumulative IPC: 0.36573 (Simulation time: 0 hr 12 min 23 sec) 
Heartbeat CPU  2 instructions:  104000000 cycles:  167275718 heartbeat IPC: 0.38517 cumulative IPC: 0.35780 (Simulation time: 0 hr 12 min 27 sec) 
Heartbeat CPU  3 instructions:  101000001 cycles:  167721707 heartbeat IPC: 0.31906 cumulative IPC: 0.34308 (Simulation time: 0 hr 12 min 28 sec) 
Heartbeat CPU  0 instructions:  108000000 cycles:  168170546 heartbeat IPC: 0.37209 cumulative IPC: 0.36585 (Simulation time: 0 hr 12 min 30 sec) 
Heartbeat CPU  1 instructions:   97000003 cycles:  169002355 heartbeat IPC: 0.18180 cumulative IPC: 0.31459 (Simulation time: 0 hr 12 min 32 sec) 
Heartbeat CPU  2 instructions:  105000001 cycles:  170074799 heartbeat IPC: 0.35726 cumulative IPC: 0.35779 (Simulation time: 0 hr 12 min 34 sec) 
Heartbeat CPU  3 instructions:  102000000 cycles:  170353307 heartbeat IPC: 0.38000 cumulative IPC: 0.34372 (Simulation time: 0 hr 12 min 35 sec) 
Heartbeat CPU  0 instructions:  109000001 cycles:  171495015 heartbeat IPC: 0.30080 cumulative IPC: 0.36442 (Simulation time: 0 hr 12 min 39 sec) 
Heartbeat CPU  1 instructions:   98000002 cycles:  171866795 heartbeat IPC: 0.34911 cumulative IPC: 0.31524 (Simulation time: 0 hr 12 min 39 sec) 
Heartbeat CPU  2 instructions:  106000000 cycles:  172976130 heartbeat IPC: 0.34467 cumulative IPC: 0.35755 (Simulation time: 0 hr 12 min 43 sec) 
Heartbeat CPU  3 instructions:  103000002 cycles:  173308238 heartbeat IPC: 0.33842 cumulative IPC: 0.34362 (Simulation time: 0 hr 12 min 44 sec) 
Heartbeat CPU  0 instructions:  110000001 cycles:  173954043 heartbeat IPC: 0.40666 cumulative IPC: 0.36510 (Simulation time: 0 hr 12 min 46 sec) 
Heartbeat CPU  1 instructions:   99000001 cycles:  174508203 heartbeat IPC: 0.37859 cumulative IPC: 0.31632 (Simulation time: 0 hr 12 min 47 sec) 
Heartbeat CPU  2 instructions:  107000000 cycles:  175681382 heartbeat IPC: 0.36965 cumulative IPC: 0.35776 (Simulation time: 0 hr 12 min 50 sec) 
Heartbeat CPU  3 instructions:  104000000 cycles:  175952829 heartbeat IPC: 0.37813 cumulative IPC: 0.34420 (Simulation time: 0 hr 12 min 51 sec) 
Heartbeat CPU  0 instructions:  111000002 cycles:  177050041 heartbeat IPC: 0.32300 cumulative IPC: 0.36427 (Simulation time: 0 hr 12 min 54 sec) 
*** Reached end of trace for Core: 1 Repeating trace: /data3/CASSANDRA/traces/cassandra_phase5_core1.trace.xz
Heartbeat CPU  1 instructions:  100000000 cycles:  177175908 heartbeat IPC: 0.37485 cumulative IPC: 0.31731 (Simulation time: 0 hr 12 min 55 sec) 
Heartbeat CPU  2 instructions:  108000000 cycles:  178336527 heartbeat IPC: 0.37663 cumulative IPC: 0.35807 (Simulation time: 0 hr 12 min 58 sec) 
Heartbeat CPU  3 instructions:  105000002 cycles:  179343570 heartbeat IPC: 0.29492 cumulative IPC: 0.34316 (Simulation time: 0 hr 13 min 1 sec) 
Heartbeat CPU  0 instructions:  112000000 cycles:  179949058 heartbeat IPC: 0.34494 cumulative IPC: 0.36392 (Simulation time: 0 hr 13 min 3 sec) 
Heartbeat CPU  1 instructions:  101000003 cycles:  179984380 heartbeat IPC: 0.35607 cumulative IPC: 0.31799 (Simulation time: 0 hr 13 min 3 sec) 
Heartbeat CPU  2 instructions:  109000003 cycles:  181231521 heartbeat IPC: 0.34542 cumulative IPC: 0.35785 (Simulation time: 0 hr 13 min 7 sec) 
Heartbeat CPU  3 instructions:  106000002 cycles:  181914314 heartbeat IPC: 0.38899 cumulative IPC: 0.34388 (Simulation time: 0 hr 13 min 9 sec) 
Heartbeat CPU  1 instructions:  102000001 cycles:  182350489 heartbeat IPC: 0.42263 cumulative IPC: 0.31951 (Simulation time: 0 hr 13 min 10 sec) 
Heartbeat CPU  0 instructions:  113000001 cycles:  182641593 heartbeat IPC: 0.37140 cumulative IPC: 0.36404 (Simulation time: 0 hr 13 min 11 sec) 
Heartbeat CPU  2 instructions:  110000001 cycles:  184232081 heartbeat IPC: 0.33327 cumulative IPC: 0.35740 (Simulation time: 0 hr 13 min 15 sec) 
Heartbeat CPU  3 instructions:  107000003 cycles:  184878200 heartbeat IPC: 0.33740 cumulative IPC: 0.34377 (Simulation time: 0 hr 13 min 17 sec) 
Heartbeat CPU  1 instructions:  103000002 cycles:  185057670 heartbeat IPC: 0.36939 cumulative IPC: 0.32032 (Simulation time: 0 hr 13 min 18 sec) 
Heartbeat CPU  0 instructions:  114000003 cycles:  185358194 heartbeat IPC: 0.36811 cumulative IPC: 0.36411 (Simulation time: 0 hr 13 min 19 sec) 
Heartbeat CPU  2 instructions:  111000003 cycles:  186918145 heartbeat IPC: 0.37229 cumulative IPC: 0.35764 (Simulation time: 0 hr 13 min 23 sec) 
Heartbeat CPU  3 instructions:  108000000 cycles:  187613964 heartbeat IPC: 0.36553 cumulative IPC: 0.34412 (Simulation time: 0 hr 13 min 25 sec) 
Heartbeat CPU  1 instructions:  104000000 cycles:  187623238 heartbeat IPC: 0.38978 cumulative IPC: 0.32139 (Simulation time: 0 hr 13 min 25 sec) 
Heartbeat CPU  0 instructions:  115000000 cycles:  188043881 heartbeat IPC: 0.37234 cumulative IPC: 0.36424 (Simulation time: 0 hr 13 min 26 sec) 
Heartbeat CPU  2 instructions:  112000000 cycles:  189652436 heartbeat IPC: 0.36572 cumulative IPC: 0.35777 (Simulation time: 0 hr 13 min 31 sec) 
Heartbeat CPU  1 instructions:  105000000 cycles:  190262071 heartbeat IPC: 0.37896 cumulative IPC: 0.32228 (Simulation time: 0 hr 13 min 32 sec) 
Heartbeat CPU  3 instructions:  109000003 cycles:  190378236 heartbeat IPC: 0.36176 cumulative IPC: 0.34441 (Simulation time: 0 hr 13 min 33 sec) 
Heartbeat CPU  0 instructions:  116000000 cycles:  190901429 heartbeat IPC: 0.34995 cumulative IPC: 0.36400 (Simulation time: 0 hr 13 min 34 sec) 
Heartbeat CPU  2 instructions:  113000000 cycles:  192311024 heartbeat IPC: 0.37614 cumulative IPC: 0.35805 (Simulation time: 0 hr 13 min 38 sec) 
Heartbeat CPU  1 instructions:  106000003 cycles:  193012011 heartbeat IPC: 0.36365 cumulative IPC: 0.32293 (Simulation time: 0 hr 13 min 40 sec) 
Heartbeat CPU  3 instructions:  110000000 cycles:  193381027 heartbeat IPC: 0.33302 cumulative IPC: 0.34421 (Simulation time: 0 hr 13 min 41 sec) 
Heartbeat CPU  0 instructions:  117000002 cycles:  193646117 heartbeat IPC: 0.36434 cumulative IPC: 0.36401 (Simulation time: 0 hr 13 min 42 sec) 
Heartbeat CPU  1 instructions:  107000001 cycles:  196274173 heartbeat IPC: 0.30654 cumulative IPC: 0.32263 (Simulation time: 0 hr 13 min 48 sec) 
Heartbeat CPU  0 instructions:  118000000 cycles:  196402338 heartbeat IPC: 0.36281 cumulative IPC: 0.36399 (Simulation time: 0 hr 13 min 49 sec) 
Heartbeat CPU  2 instructions:  114000000 cycles:  196448779 heartbeat IPC: 0.24168 cumulative IPC: 0.35533 (Simulation time: 0 hr 13 min 49 sec) 
Heartbeat CPU  3 instructions:  111000001 cycles:  196527755 heartbeat IPC: 0.31779 cumulative IPC: 0.34374 (Simulation time: 0 hr 13 min 49 sec) 
Heartbeat CPU  0 instructions:  119000000 cycles:  199024397 heartbeat IPC: 0.38138 cumulative IPC: 0.36424 (Simulation time: 0 hr 13 min 56 sec) 
Heartbeat CPU  2 instructions:  115000002 cycles:  199208708 heartbeat IPC: 0.36233 cumulative IPC: 0.35543 (Simulation time: 0 hr 13 min 56 sec) 
Heartbeat CPU  1 instructions:  108000000 cycles:  199406078 heartbeat IPC: 0.31929 cumulative IPC: 0.32257 (Simulation time: 0 hr 13 min 57 sec) 
Heartbeat CPU  3 instructions:  112000000 cycles:  199786151 heartbeat IPC: 0.30690 cumulative IPC: 0.34307 (Simulation time: 0 hr 13 min 58 sec) 
Heartbeat CPU  2 instructions:  116000000 cycles:  201679705 heartbeat IPC: 0.40469 cumulative IPC: 0.35610 (Simulation time: 0 hr 14 min 3 sec) 
Heartbeat CPU  0 instructions:  120000000 cycles:  201917290 heartbeat IPC: 0.34567 cumulative IPC: 0.36395 (Simulation time: 0 hr 14 min 4 sec) 
Heartbeat CPU  3 instructions:  113000000 cycles:  202389238 heartbeat IPC: 0.38416 cumulative IPC: 0.34366 (Simulation time: 0 hr 14 min 5 sec) 
Heartbeat CPU  1 instructions:  109000003 cycles:  203136929 heartbeat IPC: 0.26804 cumulative IPC: 0.32146 (Simulation time: 0 hr 14 min 7 sec) 
Heartbeat CPU  0 instructions:  121000002 cycles:  204406013 heartbeat IPC: 0.40181 cumulative IPC: 0.36446 (Simulation time: 0 hr 14 min 10 sec) 
Heartbeat CPU  2 instructions:  117000000 cycles:  204525538 heartbeat IPC: 0.35139 cumulative IPC: 0.35603 (Simulation time: 0 hr 14 min 11 sec) 
Heartbeat CPU  3 instructions:  114000001 cycles:  205315615 heartbeat IPC: 0.34172 cumulative IPC: 0.34363 (Simulation time: 0 hr 14 min 13 sec) 
Heartbeat CPU  1 instructions:  110000001 cycles:  206594021 heartbeat IPC: 0.28926 cumulative IPC: 0.32087 (Simulation time: 0 hr 14 min 16 sec) 
Heartbeat CPU  0 instructions:  122000000 cycles:  207400950 heartbeat IPC: 0.33390 cumulative IPC: 0.36397 (Simulation time: 0 hr 14 min 18 sec) 
Heartbeat CPU  3 instructions:  115000001 cycles:  207815164 heartbeat IPC: 0.40007 cumulative IPC: 0.34438 (Simulation time: 0 hr 14 min 19 sec) 
Heartbeat CPU  2 instructions:  118000003 cycles:  208242714 heartbeat IPC: 0.26902 cumulative IPC: 0.35432 (Simulation time: 0 hr 14 min 20 sec) 
Heartbeat CPU  1 instructions:  111000002 cycles:  210520121 heartbeat IPC: 0.25471 cumulative IPC: 0.31951 (Simulation time: 0 hr 14 min 26 sec) 
Heartbeat CPU  0 instructions:  123000000 cycles:  210550926 heartbeat IPC: 0.31746 cumulative IPC: 0.36320 (Simulation time: 0 hr 14 min 26 sec) 
Heartbeat CPU  3 instructions:  116000000 cycles:  210695884 heartbeat IPC: 0.34714 cumulative IPC: 0.34442 (Simulation time: 0 hr 14 min 27 sec) 
Heartbeat CPU  2 instructions:  119000003 cycles:  211523772 heartbeat IPC: 0.30478 cumulative IPC: 0.35347 (Simulation time: 0 hr 14 min 29 sec) 
Heartbeat CPU  1 instructions:  112000000 cycles:  212912046 heartbeat IPC: 0.41807 cumulative IPC: 0.32073 (Simulation time: 0 hr 14 min 33 sec) 
Heartbeat CPU  0 instructions:  124000000 cycles:  213099596 heartbeat IPC: 0.39236 cumulative IPC: 0.36359 (Simulation time: 0 hr 14 min 34 sec) 
Heartbeat CPU  3 instructions:  117000003 cycles:  213293474 heartbeat IPC: 0.38497 cumulative IPC: 0.34496 (Simulation time: 0 hr 14 min 34 sec) 
Heartbeat CPU  2 instructions:  120000000 cycles:  214791392 heartbeat IPC: 0.30603 cumulative IPC: 0.35267 (Simulation time: 0 hr 14 min 38 sec) 
Heartbeat CPU  1 instructions:  113000001 cycles:  215600235 heartbeat IPC: 0.37200 cumulative IPC: 0.32143 (Simulation time: 0 hr 14 min 41 sec) 
Heartbeat CPU  0 instructions:  125000001 cycles:  215703245 heartbeat IPC: 0.38408 cumulative IPC: 0.36386 (Simulation time: 0 hr 14 min 41 sec) 
Heartbeat CPU  3 instructions:  118000002 cycles:  216408978 heartbeat IPC: 0.32098 cumulative IPC: 0.34458 (Simulation time: 0 hr 14 min 43 sec) 
Heartbeat CPU  2 instructions:  121000000 cycles:  217311540 heartbeat IPC: 0.39680 cumulative IPC: 0.35324 (Simulation time: 0 hr 14 min 45 sec) 
Heartbeat CPU  0 instructions:  126000001 cycles:  218942130 heartbeat IPC: 0.30875 cumulative IPC: 0.36296 (Simulation time: 0 hr 14 min 49 sec) 
Heartbeat CPU  1 instructions:  114000001 cycles:  219203009 heartbeat IPC: 0.27756 cumulative IPC: 0.32064 (Simulation time: 0 hr 14 min 50 sec) 
Heartbeat CPU  3 instructions:  119000000 cycles:  219362281 heartbeat IPC: 0.33860 cumulative IPC: 0.34450 (Simulation time: 0 hr 14 min 51 sec) 
Heartbeat CPU  2 instructions:  122000000 cycles:  219921083 heartbeat IPC: 0.38321 cumulative IPC: 0.35363 (Simulation time: 0 hr 14 min 52 sec) 
Heartbeat CPU  0 instructions:  127000001 cycles:  221553690 heartbeat IPC: 0.38291 cumulative IPC: 0.36322 (Simulation time: 0 hr 14 min 57 sec) 
Heartbeat CPU  3 instructions:  120000000 cycles:  221998283 heartbeat IPC: 0.37936 cumulative IPC: 0.34495 (Simulation time: 0 hr 14 min 58 sec) 
Heartbeat CPU  2 instructions:  123000002 cycles:  222522600 heartbeat IPC: 0.38439 cumulative IPC: 0.35402 (Simulation time: 0 hr 15 min 0 sec) 
Heartbeat CPU  1 instructions:  115000003 cycles:  222575259 heartbeat IPC: 0.29654 cumulative IPC: 0.32024 (Simulation time: 0 hr 15 min 0 sec) 
Heartbeat CPU  0 instructions:  128000000 cycles:  224210370 heartbeat IPC: 0.37641 cumulative IPC: 0.36339 (Simulation time: 0 hr 15 min 4 sec) 
Heartbeat CPU  1 instructions:  116000000 cycles:  225390639 heartbeat IPC: 0.35519 cumulative IPC: 0.32072 (Simulation time: 0 hr 15 min 8 sec) 
Heartbeat CPU  3 instructions:  121000002 cycles:  225417946 heartbeat IPC: 0.29243 cumulative IPC: 0.34408 (Simulation time: 0 hr 15 min 8 sec) 
Heartbeat CPU  2 instructions:  124000000 cycles:  225824290 heartbeat IPC: 0.30287 cumulative IPC: 0.35320 (Simulation time: 0 hr 15 min 9 sec) 
Heartbeat CPU  0 instructions:  129000000 cycles:  226628597 heartbeat IPC: 0.41353 cumulative IPC: 0.36398 (Simulation time: 0 hr 15 min 11 sec) 
Heartbeat CPU  3 instructions:  122000003 cycles:  227952481 heartbeat IPC: 0.39455 cumulative IPC: 0.34469 (Simulation time: 0 hr 15 min 15 sec) 
Heartbeat CPU  1 instructions:  117000002 cycles:  228146859 heartbeat IPC: 0.36282 cumulative IPC: 0.32127 (Simulation time: 0 hr 15 min 16 sec) 
Heartbeat CPU  2 instructions:  125000002 cycles:  228273228 heartbeat IPC: 0.40834 cumulative IPC: 0.35385 (Simulation time: 0 hr 15 min 16 sec) 
Heartbeat CPU  0 instructions:  130000000 cycles:  229915366 heartbeat IPC: 0.30425 cumulative IPC: 0.36304 (Simulation time: 0 hr 15 min 21 sec) 
Heartbeat CPU  2 instructions:  126000000 cycles:  230727864 heartbeat IPC: 0.40739 cumulative IPC: 0.35447 (Simulation time: 0 hr 15 min 23 sec) 
Heartbeat CPU  1 instructions:  118000003 cycles:  231152780 heartbeat IPC: 0.33268 cumulative IPC: 0.32143 (Simulation time: 0 hr 15 min 25 sec) 
Heartbeat CPU  3 instructions:  123000003 cycles:  231186978 heartbeat IPC: 0.30917 cumulative IPC: 0.34415 (Simulation time: 0 hr 15 min 25 sec) 
Heartbeat CPU  0 instructions:  131000001 cycles:  232440390 heartbeat IPC: 0.39604 cumulative IPC: 0.36344 (Simulation time: 0 hr 15 min 28 sec) 
Heartbeat CPU  2 instructions:  127000002 cycles:  233187888 heartbeat IPC: 0.40650 cumulative IPC: 0.35507 (Simulation time: 0 hr 15 min 30 sec) 
Heartbeat CPU  1 instructions:  119000002 cycles:  234314450 heartbeat IPC: 0.31629 cumulative IPC: 0.32136 (Simulation time: 0 hr 15 min 33 sec) 
Heartbeat CPU  0 instructions:  132000000 cycles:  235086339 heartbeat IPC: 0.37794 cumulative IPC: 0.36361 (Simulation time: 0 hr 15 min 35 sec) 
Heartbeat CPU  2 instructions:  128000000 cycles:  235834616 heartbeat IPC: 0.37782 cumulative IPC: 0.35535 (Simulation time: 0 hr 15 min 37 sec) 
Heartbeat CPU  3 instructions:  124000000 cycles:  236027407 heartbeat IPC: 0.20659 cumulative IPC: 0.34107 (Simulation time: 0 hr 15 min 37 sec) 
Heartbeat CPU  1 instructions:  120000000 cycles:  237233473 heartbeat IPC: 0.34258 cumulative IPC: 0.32164 (Simulation time: 0 hr 15 min 41 sec) 
Heartbeat CPU  0 instructions:  133000000 cycles:  238102648 heartbeat IPC: 0.33153 cumulative IPC: 0.36317 (Simulation time: 0 hr 15 min 43 sec) 
Heartbeat CPU  2 instructions:  129000002 cycles:  238275497 heartbeat IPC: 0.40969 cumulative IPC: 0.35596 (Simulation time: 0 hr 15 min 44 sec) 
Heartbeat CPU  3 instructions:  125000003 cycles:  239432132 heartbeat IPC: 0.29371 cumulative IPC: 0.34034 (Simulation time: 0 hr 15 min 47 sec) 
Heartbeat CPU  2 instructions:  130000000 cycles:  240720161 heartbeat IPC: 0.40905 cumulative IPC: 0.35654 (Simulation time: 0 hr 15 min 51 sec) 
Heartbeat CPU  1 instructions:  121000002 cycles:  240789803 heartbeat IPC: 0.28119 cumulative IPC: 0.32099 (Simulation time: 0 hr 15 min 51 sec) 
Heartbeat CPU  0 instructions:  134000002 cycles:  241043147 heartbeat IPC: 0.34008 cumulative IPC: 0.36286 (Simulation time: 0 hr 15 min 52 sec) 
Heartbeat CPU  3 instructions:  126000001 cycles:  242668952 heartbeat IPC: 0.30894 cumulative IPC: 0.33988 (Simulation time: 0 hr 15 min 56 sec) 
Heartbeat CPU  2 instructions:  131000001 cycles:  243246658 heartbeat IPC: 0.39581 cumulative IPC: 0.35699 (Simulation time: 0 hr 15 min 58 sec) 
Heartbeat CPU  1 instructions:  122000001 cycles:  243709640 heartbeat IPC: 0.34248 cumulative IPC: 0.32127 (Simulation time: 0 hr 15 min 59 sec) 
Heartbeat CPU  0 instructions:  135000000 cycles:  243972074 heartbeat IPC: 0.34142 cumulative IPC: 0.36258 (Simulation time: 0 hr 16 min 0 sec) 
Heartbeat CPU  3 instructions:  127000001 cycles:  245569471 heartbeat IPC: 0.34477 cumulative IPC: 0.33995 (Simulation time: 0 hr 16 min 4 sec) 
Heartbeat CPU  1 instructions:  123000000 cycles:  246398525 heartbeat IPC: 0.37190 cumulative IPC: 0.32187 (Simulation time: 0 hr 16 min 7 sec) 
Heartbeat CPU  2 instructions:  132000000 cycles:  246480556 heartbeat IPC: 0.30922 cumulative IPC: 0.35631 (Simulation time: 0 hr 16 min 7 sec) 
Heartbeat CPU  0 instructions:  136000000 cycles:  246921991 heartbeat IPC: 0.33899 cumulative IPC: 0.36228 (Simulation time: 0 hr 16 min 8 sec) 
Heartbeat CPU  3 instructions:  128000000 cycles:  249038653 heartbeat IPC: 0.28825 cumulative IPC: 0.33916 (Simulation time: 0 hr 16 min 14 sec) 
Heartbeat CPU  2 instructions:  133000000 cycles:  249198609 heartbeat IPC: 0.36791 cumulative IPC: 0.35644 (Simulation time: 0 hr 16 min 14 sec) 
Heartbeat CPU  1 instructions:  124000000 cycles:  249727450 heartbeat IPC: 0.30040 cumulative IPC: 0.32156 (Simulation time: 0 hr 16 min 15 sec) 
Heartbeat CPU  0 instructions:  137000000 cycles:  249848051 heartbeat IPC: 0.34176 cumulative IPC: 0.36202 (Simulation time: 0 hr 16 min 16 sec) 
Heartbeat CPU  3 instructions:  129000000 cycles:  251570361 heartbeat IPC: 0.39499 cumulative IPC: 0.33977 (Simulation time: 0 hr 16 min 21 sec) 
Heartbeat CPU  2 instructions:  134000003 cycles:  252347876 heartbeat IPC: 0.31754 cumulative IPC: 0.35592 (Simulation time: 0 hr 16 min 23 sec) 
[...]
Core_0_L1I_acc_level_4 0
Core_0_L1I_acc_level_5 0
Core_0_L1I_acc_level_6 0
Core_0_L1I_acc_level_7 0
Core_0_L1I_acc_level_8 0
Core_0_L1I_acc_level_9 0

Core_0_L2C_total_access 1892492
Core_0_L2C_total_hit 525840
Core_0_L2C_total_miss 1366652
Core_0_L2C_loads 1431576
Core_0_L2C_load_hit 166569
Core_0_L2C_load_miss 1265007
Core_0_L2C_RFOs 118370
Core_0_L2C_RFO_hit 17879
Core_0_L2C_RFO_miss 100491
Core_0_L2C_prefetches 0
Core_0_L2C_prefetch_hit 0
Core_0_L2C_prefetch_miss 0
Core_0_L2C_writebacks 342546
Core_0_L2C_writeback_hit 341392
Core_0_L2C_writeback_miss 1154
Core_0_L2C_prefetch_requested 0
Core_0_L2C_prefetch_dropped 0
Core_0_L2C_prefetch_issued 0
Core_0_L2C_prefetch_filled 0
Core_0_L2C_prefetch_useful 0
Core_0_L2C_prefetch_useless 0
Core_0_L2C_prefetch_late 0
Core_0_L2C_average_miss_latency 191.09980

Core_0_L2C_rq_access 1757869
Core_0_L2C_rq_forward 0
Core_0_L2C_rq_merged 0
Core_0_L2C_rq_to_cache 1757842
Core_0_L2C_rq_full 0

Core_0_L2C_wq_access 386011
Core_0_L2C_wq_forward 27
Core_0_L2C_wq_merged 0
Core_0_L2C_wq_to_cache 386011
Core_0_L2C_wq_full 0

Core_0_L2C_pq_access 0
Core_0_L2C_pq_forward 0
Core_0_L2C_pq_merged 0
Core_0_L2C_pq_to_cache 0
Core_0_L2C_pq_full 0

Core_0_L2C_acc_epochs 226656
Core_0_L2C_acc_level_0 226656
Core_0_L2C_acc_level_1 0
Core_0_L2C_acc_level_2 0
Core_0_L2C_acc_level_3 0
Core_0_L2C_acc_level_4 0
Core_0_L2C_acc_level_5 0
Core_0_L2C_acc_level_6 0
Core_0_L2C_acc_level_7 0
Core_0_L2C_acc_level_8 0
Core_0_L2C_acc_level_9 0

Core_0_LLC_total_access 1682389
Core_0_LLC_total_hit 694866
Core_0_LLC_total_miss 987523
Core_0_LLC_loads 1265004
Core_0_LLC_load_hit 497068
Core_0_LLC_load_miss 767936
Core_0_LLC_RFOs 100490
Core_0_LLC_RFO_hit 37366
Core_0_LLC_RFO_miss 63124
Core_0_LLC_prefetches 0
Core_0_LLC_prefetch_hit 0
Core_0_LLC_prefetch_miss 0
Core_0_LLC_writebacks 316895
Core_0_LLC_writeback_hit 160432
Core_0_LLC_writeback_miss 156463
Core_0_LLC_prefetch_requested 0
Core_0_LLC_prefetch_dropped 0
Core_0_LLC_prefetch_issued 0
Core_0_LLC_prefetch_filled 0
Core_0_LLC_prefetch_useful 0
Core_0_LLC_prefetch_useless 0
Core_0_LLC_prefetch_late 0
Core_0_LLC_average_miss_latency 753.10267

Core_0_LLC_rq_access 6463948
Core_0_LLC_rq_forward 0
Core_0_LLC_rq_merged 0
Core_0_LLC_rq_to_cache 6463923
Core_0_LLC_rq_full 0

Core_0_LLC_wq_access 1517734
Core_0_LLC_wq_forward 25
Core_0_LLC_wq_merged 0
Core_0_LLC_wq_to_cache 1517734
Core_0_LLC_wq_full 0

Core_0_LLC_pq_access 0
Core_0_LLC_pq_forward 0
Core_0_LLC_pq_merged 0
Core_0_LLC_pq_to_cache 0
Core_0_LLC_pq_full 0

Core_0_LLC_acc_epochs 476311
Core_0_LLC_acc_level_0 476311
Core_0_LLC_acc_level_1 0
Core_0_LLC_acc_level_2 0
Core_0_LLC_acc_level_3 0
Core_0_LLC_acc_level_4 0
Core_0_LLC_acc_level_5 0
Core_0_LLC_acc_level_6 0
Core_0_LLC_acc_level_7 0
Core_0_LLC_acc_level_8 0
Core_0_LLC_acc_level_9 0

Core_0_major_page_fault 0
Core_0_minor_page_fault 42870

Core_1_instructions 150000002
Core_1_cycles 468141686
Core_1_IPC 0.32042

Core_1_branch_prediction_accuracy 96.74825
Core_1_branch_MPKI 4.08973
Core_1_average_ROB_occupancy_at_mispredict 79.29193

Core_1_L1D_total_access 15126777
Core_1_L1D_total_hit 13565354
Core_1_L1D_total_miss 1561423
Core_1_L1D_loads 9834107
Core_1_L1D_load_hit 8480713
Core_1_L1D_load_miss 1353394
Core_1_L1D_RFOs 5292670
Core_1_L1D_RFO_hit 5084641
Core_1_L1D_RFO_miss 208029
Core_1_L1D_prefetches 0
Core_1_L1D_prefetch_hit 0
Core_1_L1D_prefetch_miss 0
Core_1_L1D_writebacks 0
Core_1_L1D_writeback_hit 0
Core_1_L1D_writeback_miss 0
Core_1_L1D_prefetch_requested 0
Core_1_L1D_prefetch_dropped 0
Core_1_L1D_prefetch_issued 0
Core_1_L1D_prefetch_filled 0
Core_1_L1D_prefetch_useful 0
Core_1_L1D_prefetch_useless 0
Core_1_L1D_prefetch_late 0
Core_1_L1D_average_miss_latency 184.29053

Core_1_L1D_rq_access 17800836
Core_1_L1D_rq_forward 0
Core_1_L1D_rq_merged 7502303
Core_1_L1D_rq_to_cache 10298245
Core_1_L1D_rq_full 0

Core_1_L1D_wq_access 6030660
Core_1_L1D_wq_forward 288
Core_1_L1D_wq_merged 121560
Core_1_L1D_wq_to_cache 5909100
Core_1_L1D_wq_full 1076

Core_1_L1D_pq_access 0
Core_1_L1D_pq_forward 0
Core_1_L1D_pq_merged 0
Core_1_L1D_pq_to_cache 0
Core_1_L1D_pq_full 0

Core_1_L1D_acc_epochs 222539
Core_1_L1D_acc_level_0 222539
Core_1_L1D_acc_level_1 0
Core_1_L1D_acc_level_2 0
Core_1_L1D_acc_level_3 0
Core_1_L1D_acc_level_4 0
Core_1_L1D_acc_level_5 0
Core_1_L1D_acc_level_6 0
Core_1_L1D_acc_level_7 0
Core_1_L1D_acc_level_8 0
Core_1_L1D_acc_level_9 0

Core_1_L1I_total_access 30013801
Core_1_L1I_total_hit 29215823
Core_1_L1I_total_miss 797978
Core_1_L1I_loads 30013801
Core_1_L1I_load_hit 29215823
Core_1_L1I_load_miss 797978
Core_1_L1I_RFOs 0
Core_1_L1I_RFO_hit 0
Core_1_L1I_RFO_miss 0
Core_1_L1I_prefetches 0
Core_1_L1I_prefetch_hit 0
Core_1_L1I_prefetch_miss 0
Core_1_L1I_writebacks 0
Core_1_L1I_writeback_hit 0
Core_1_L1I_writeback_miss 0
Core_1_L1I_prefetch_requested 0
Core_1_L1I_prefetch_dropped 0
Core_1_L1I_prefetch_issued 0
Core_1_L1I_prefetch_filled 0
Core_1_L1I_prefetch_useful 0
Core_1_L1I_prefetch_useless 0
Core_1_L1I_prefetch_late 0
Core_1_L1I_average_miss_latency 78.46586

Core_1_L1I_rq_access 150000007
Core_1_L1I_rq_forward 0
Core_1_L1I_rq_merged 119526920
Core_1_L1I_rq_to_cache 30473087
Core_1_L1I_rq_full 0

Core_1_L1I_wq_access 0
Core_1_L1I_wq_forward 0
Core_1_L1I_wq_merged 0
Core_1_L1I_wq_to_cache 0
Core_1_L1I_wq_full 0

Core_1_L1I_pq_access 0
Core_1_L1I_pq_forward 0
Core_1_L1I_pq_merged 0
Core_1_L1I_pq_to_cache 0
Core_1_L1I_pq_full 0

Core_1_L1I_acc_epochs 222539
Core_1_L1I_acc_level_0 222539
Core_1_L1I_acc_level_1 0
Core_1_L1I_acc_level_2 0
Core_1_L1I_acc_level_3 0
Core_1_L1I_acc_level_4 0
Core_1_L1I_acc_level_5 0
Core_1_L1I_acc_level_6 0
Core_1_L1I_acc_level_7 0
Core_1_L1I_acc_level_8 0
Core_1_L1I_acc_level_9 0

Core_1_L2C_total_access 2846225
Core_1_L2C_total_hit 1141884
Core_1_L2C_total_miss 1704341
Core_1_L2C_loads 2151339
Core_1_L2C_load_hit 613321
Core_1_L2C_load_miss 1538018
Core_1_L2C_RFOs 207989
Core_1_L2C_RFO_hit 45742
Core_1_L2C_RFO_miss 162247
Core_1_L2C_prefetches 0
Core_1_L2C_prefetch_hit 0
Core_1_L2C_prefetch_miss 0
Core_1_L2C_writebacks 486897
Core_1_L2C_writeback_hit 482821
Core_1_L2C_writeback_miss 4076
Core_1_L2C_prefetch_requested 0
Core_1_L2C_prefetch_dropped 0
Core_1_L2C_prefetch_issued 0
Core_1_L2C_prefetch_filled 0
Core_1_L2C_prefetch_useful 0
Core_1_L2C_prefetch_useless 0
Core_1_L2C_prefetch_late 0
Core_1_L2C_average_miss_latency 153.77046

Core_1_L2C_rq_access 2359401
Core_1_L2C_rq_forward 0
Core_1_L2C_rq_merged 0
Core_1_L2C_rq_to_cache 2359328
Core_1_L2C_rq_full 0

Core_1_L2C_wq_access 486897
Core_1_L2C_wq_forward 73
Core_1_L2C_wq_merged 0
Core_1_L2C_wq_to_cache 486897
Core_1_L2C_wq_full 0

Core_1_L2C_pq_access 0
Core_1_L2C_pq_forward 0
Core_1_L2C_pq_merged 0
Core_1_L2C_pq_to_cache 0
Core_1_L2C_pq_full 0

Core_1_L2C_acc_epochs 222539
Core_1_L2C_acc_level_0 222539
Core_1_L2C_acc_level_1 0
Core_1_L2C_acc_level_2 0
Core_1_L2C_acc_level_3 0
Core_1_L2C_acc_level_4 0
Core_1_L2C_acc_level_5 0
Core_1_L2C_acc_level_6 0
Core_1_L2C_acc_level_7 0
Core_1_L2C_acc_level_8 0
Core_1_L2C_acc_level_9 0

Core_1_LLC_total_access 2107725
Core_1_LLC_total_hit 1040887
Core_1_LLC_total_miss 1066838
Core_1_LLC_loads 1538013
Core_1_LLC_load_hit 715942
Core_1_LLC_load_miss 822071
Core_1_LLC_RFOs 162236
Core_1_LLC_RFO_hit 70587
Core_1_LLC_RFO_miss 91649
Core_1_LLC_prefetches 0
Core_1_LLC_prefetch_hit 0
Core_1_LLC_prefetch_miss 0
Core_1_LLC_writebacks 407476
Core_1_LLC_writeback_hit 254358
Core_1_LLC_writeback_miss 153118
Core_1_LLC_prefetch_requested 0
Core_1_LLC_prefetch_dropped 0
Core_1_LLC_prefetch_issued 0
Core_1_LLC_prefetch_filled 0
Core_1_LLC_prefetch_useful 0
Core_1_LLC_prefetch_useless 0
Core_1_LLC_prefetch_late 0
Core_1_LLC_average_miss_latency 697.11259

Core_1_LLC_rq_access 6463948
Core_1_LLC_rq_forward 0
Core_1_LLC_rq_merged 0
Core_1_LLC_rq_to_cache 6463923
Core_1_LLC_rq_full 0

Core_1_LLC_wq_access 1517734
Core_1_LLC_wq_forward 25
Core_1_LLC_wq_merged 0
Core_1_LLC_wq_to_cache 1517734
Core_1_LLC_wq_full 0

Core_1_LLC_pq_access 0
Core_1_LLC_pq_forward 0
Core_1_LLC_pq_merged 0
Core_1_LLC_pq_to_cache 0
Core_1_LLC_pq_full 0

Core_1_LLC_acc_epochs 476311
Core_1_LLC_acc_level_0 476311
Core_1_LLC_acc_level_1 0
Core_1_LLC_acc_level_2 0
Core_1_LLC_acc_level_3 0
Core_1_LLC_acc_level_4 0
Core_1_LLC_acc_level_5 0
Core_1_LLC_acc_level_6 0
Core_1_LLC_acc_level_7 0
Core_1_LLC_acc_level_8 0
Core_1_LLC_acc_level_9 0

Core_1_major_page_fault 0
Core_1_minor_page_fault 45763

Core_2_instructions 150000003
Core_2_cycles 420876348
Core_2_IPC 0.35640

Core_2_branch_prediction_accuracy 97.85189
Core_2_branch_MPKI 2.64967
Core_2_average_ROB_occupancy_at_mispredict 100.82575

Core_2_L1D_total_access 14289054
Core_2_L1D_total_hit 12958250
Core_2_L1D_total_miss 1330804
Core_2_L1D_loads 9463586
Core_2_L1D_load_hit 8273378
Core_2_L1D_load_miss 1190208
Core_2_L1D_RFOs 4825468
Core_2_L1D_RFO_hit 4684872
Core_2_L1D_RFO_miss 140596
Core_2_L1D_prefetches 0
Core_2_L1D_prefetch_hit 0
Core_2_L1D_prefetch_miss 0
Core_2_L1D_writebacks 0
Core_2_L1D_writeback_hit 0
Core_2_L1D_writeback_miss 0
Core_2_L1D_prefetch_requested 0
Core_2_L1D_prefetch_dropped 0
Core_2_L1D_prefetch_issued 0
Core_2_L1D_prefetch_filled 0
Core_2_L1D_prefetch_useful 0
Core_2_L1D_prefetch_useless 0
Core_2_L1D_prefetch_late 0
Core_2_L1D_average_miss_latency 221.57099

Core_2_L1D_rq_access 19159424
Core_2_L1D_rq_forward 0
Core_2_L1D_rq_merged 8166579
Core_2_L1D_rq_to_cache 10992415
Core_2_L1D_rq_full 0

Core_2_L1D_wq_access 5981943
Core_2_L1D_wq_forward 430
Core_2_L1D_wq_merged 128109
Core_2_L1D_wq_to_cache 5853834
Core_2_L1D_wq_full 0

Core_2_L1D_pq_access 0
Core_2_L1D_pq_forward 0
Core_2_L1D_pq_merged 0
Core_2_L1D_pq_to_cache 0
Core_2_L1D_pq_full 0

Core_2_L1D_acc_epochs 227103
Core_2_L1D_acc_level_0 227103
Core_2_L1D_acc_level_1 0
Core_2_L1D_acc_level_2 0
Core_2_L1D_acc_level_3 0
Core_2_L1D_acc_level_4 0
Core_2_L1D_acc_level_5 0
Core_2_L1D_acc_level_6 0
Core_2_L1D_acc_level_7 0
Core_2_L1D_acc_level_8 0
Core_2_L1D_acc_level_9 0

Core_2_L1I_total_access 30132675
Core_2_L1I_total_hit 29769302
Core_2_L1I_total_miss 363373
Core_2_L1I_loads 30132675
Core_2_L1I_load_hit 29769302
Core_2_L1I_load_miss 363373
Core_2_L1I_RFOs 0
Core_2_L1I_RFO_hit 0
Core_2_L1I_RFO_miss 0
Core_2_L1I_prefetches 0
Core_2_L1I_prefetch_hit 0
Core_2_L1I_prefetch_miss 0
Core_2_L1I_writebacks 0
Core_2_L1I_writeback_hit 0
Core_2_L1I_writeback_miss 0
Core_2_L1I_prefetch_requested 0
Core_2_L1I_prefetch_dropped 0
Core_2_L1I_prefetch_issued 0
Core_2_L1I_prefetch_filled 0
Core_2_L1I_prefetch_useful 0
Core_2_L1I_prefetch_useless 0
Core_2_L1I_prefetch_late 0
Core_2_L1I_average_miss_latency 106.51546

Core_2_L1I_rq_access 166284442
Core_2_L1I_rq_forward 0
Core_2_L1I_rq_merged 132644439
Core_2_L1I_rq_to_cache 33640003
Core_2_L1I_rq_full 0

Core_2_L1I_wq_access 0
Core_2_L1I_wq_forward 0
Core_2_L1I_wq_merged 0
Core_2_L1I_wq_to_cache 0
Core_2_L1I_wq_full 0

Core_2_L1I_pq_access 0
Core_2_L1I_pq_forward 0
Core_2_L1I_pq_merged 0
Core_2_L1I_pq_to_cache 0
Core_2_L1I_pq_full 0

Core_2_L1I_acc_epochs 227103
Core_2_L1I_acc_level_0 227103
Core_2_L1I_acc_level_1 0
Core_2_L1I_acc_level_2 0
Core_2_L1I_acc_level_3 0
Core_2_L1I_acc_level_4 0
Core_2_L1I_acc_level_5 0
Core_2_L1I_acc_level_6 0
Core_2_L1I_acc_level_7 0
Core_2_L1I_acc_level_8 0
Core_2_L1I_acc_level_9 0

Core_2_L2C_total_access 2067060
Core_2_L2C_total_hit 604005
Core_2_L2C_total_miss 1463055
Core_2_L2C_loads 1553571
Core_2_L2C_load_hit 212243
Core_2_L2C_load_miss 1341328
Core_2_L2C_RFOs 140568
Core_2_L2C_RFO_hit 20453
Core_2_L2C_RFO_miss 120115
Core_2_L2C_prefetches 0
Core_2_L2C_prefetch_hit 0
Core_2_L2C_prefetch_miss 0
Core_2_L2C_writebacks 372921
Core_2_L2C_writeback_hit 371309
Core_2_L2C_writeback_miss 1612
Core_2_L2C_prefetch_requested 0
Core_2_L2C_prefetch_dropped 0
Core_2_L2C_prefetch_issued 0
Core_2_L2C_prefetch_filled 0
Core_2_L2C_prefetch_useful 0
Core_2_L2C_prefetch_useless 0
Core_2_L2C_prefetch_late 0
Core_2_L2C_average_miss_latency 182.07098

Core_2_L2C_rq_access 1888833
Core_2_L2C_rq_forward 0
Core_2_L2C_rq_merged 0
Core_2_L2C_rq_to_cache 1888790
Core_2_L2C_rq_full 0

Core_2_L2C_wq_access 414473
Core_2_L2C_wq_forward 43
Core_2_L2C_wq_merged 0
Core_2_L2C_wq_to_cache 414473
Core_2_L2C_wq_full 0

Core_2_L2C_pq_access 0
Core_2_L2C_pq_forward 0
Core_2_L2C_pq_merged 0
Core_2_L2C_pq_to_cache 0
Core_2_L2C_pq_full 0

Core_2_L2C_acc_epochs 227103
Core_2_L2C_acc_level_0 227103
Core_2_L2C_acc_level_1 0
Core_2_L2C_acc_level_2 0
Core_2_L2C_acc_level_3 0
Core_2_L2C_acc_level_4 0
Core_2_L2C_acc_level_5 0
Core_2_L2C_acc_level_6 0
Core_2_L2C_acc_level_7 0
Core_2_L2C_acc_level_8 0
Core_2_L2C_acc_level_9 0

Core_2_LLC_total_access 1804759
Core_2_LLC_total_hit 795493
Core_2_LLC_total_miss 1009266
Core_2_LLC_loads 1341327
Core_2_LLC_load_hit 569782
Core_2_LLC_load_miss 771545
Core_2_LLC_RFOs 120113
Core_2_LLC_RFO_hit 36932
Core_2_LLC_RFO_miss 83181
Core_2_LLC_prefetches 0
Core_2_LLC_prefetch_hit 0
Core_2_LLC_prefetch_miss 0
Core_2_LLC_writebacks 343319
Core_2_LLC_writeback_hit 188779
Core_2_LLC_writeback_miss 154540
Core_2_LLC_prefetch_requested 0
Core_2_LLC_prefetch_dropped 0
Core_2_LLC_prefetch_issued 0
Core_2_LLC_prefetch_filled 0
Core_2_LLC_prefetch_useful 0
Core_2_LLC_prefetch_useless 0
Core_2_LLC_prefetch_late 0
Core_2_LLC_average_miss_latency 736.87829

Core_2_LLC_rq_access 6463948
Core_2_LLC_rq_forward 0
Core_2_LLC_rq_merged 0
Core_2_LLC_rq_to_cache 6463923
Core_2_LLC_rq_full 0

Core_2_LLC_wq_access 1517734
Core_2_LLC_wq_forward 25
Core_2_LLC_wq_merged 0
Core_2_LLC_wq_to_cache 1517734
Core_2_LLC_wq_full 0

Core_2_LLC_pq_access 0
Core_2_LLC_pq_forward 0
Core_2_LLC_pq_merged 0
Core_2_LLC_pq_to_cache 0
Core_2_LLC_pq_full 0

Core_2_LLC_acc_epochs 476311
Core_2_LLC_acc_level_0 476311
Core_2_LLC_acc_level_1 0
Core_2_LLC_acc_level_2 0
Core_2_LLC_acc_level_3 0
Core_2_LLC_acc_level_4 0
Core_2_LLC_acc_level_5 0
Core_2_LLC_acc_level_6 0
Core_2_LLC_acc_level_7 0
Core_2_LLC_acc_level_8 0
Core_2_LLC_acc_level_9 0

Core_2_major_page_fault 0
Core_2_minor_page_fault 44983

Core_3_instructions 150000002
Core_3_cycles 437921755
Core_3_IPC 0.34253

Core_3_branch_prediction_accuracy 97.78110
Core_3_branch_MPKI 2.73566
Core_3_average_ROB_occupancy_at_mispredict 98.80294

Core_3_L1D_total_access 14757022
Core_3_L1D_total_hit 13407588
Core_3_L1D_total_miss 1349434
Core_3_L1D_loads 9703768
Core_3_L1D_load_hit 8501987
Core_3_L1D_load_miss 1201781
Core_3_L1D_RFOs 5053254
Core_3_L1D_RFO_hit 4905601
Core_3_L1D_RFO_miss 147653
Core_3_L1D_prefetches 0
Core_3_L1D_prefetch_hit 0
Core_3_L1D_prefetch_miss 0
Core_3_L1D_writebacks 0
Core_3_L1D_writeback_hit 0
Core_3_L1D_writeback_miss 0
Core_3_L1D_prefetch_requested 0
Core_3_L1D_prefetch_dropped 0
Core_3_L1D_prefetch_issued 0
Core_3_L1D_prefetch_filled 0
Core_3_L1D_prefetch_useful 0
Core_3_L1D_prefetch_useless 0
Core_3_L1D_prefetch_late 0
Core_3_L1D_average_miss_latency 215.80189

Core_3_L1D_rq_access 18788471
Core_3_L1D_rq_forward 0
Core_3_L1D_rq_merged 7963758
Core_3_L1D_rq_to_cache 10823336
Core_3_L1D_rq_full 0

Core_3_L1D_wq_access 6020384
Core_3_L1D_wq_forward 1377
Core_3_L1D_wq_merged 132890
Core_3_L1D_wq_to_cache 5887494
Core_3_L1D_wq_full 0

Core_3_L1D_pq_access 0
Core_3_L1D_pq_forward 0
Core_3_L1D_pq_merged 0
Core_3_L1D_pq_to_cache 0
Core_3_L1D_pq_full 0

Core_3_L1D_acc_epochs 225863
Core_3_L1D_acc_level_0 225863
Core_3_L1D_acc_level_1 0
Core_3_L1D_acc_level_2 0
Core_3_L1D_acc_level_3 0
Core_3_L1D_acc_level_4 0
Core_3_L1D_acc_level_5 0
Core_3_L1D_acc_level_6 0
Core_3_L1D_acc_level_7 0
Core_3_L1D_acc_level_8 0
Core_3_L1D_acc_level_9 0

Core_3_L1I_total_access 30405637
Core_3_L1I_total_hit 29992082
Core_3_L1I_total_miss 413555
Core_3_L1I_loads 30405637
Core_3_L1I_load_hit 29992082
Core_3_L1I_load_miss 413555
Core_3_L1I_RFOs 0
Core_3_L1I_RFO_hit 0
Core_3_L1I_RFO_miss 0
Core_3_L1I_prefetches 0
Core_3_L1I_prefetch_hit 0
Core_3_L1I_prefetch_miss 0
Core_3_L1I_writebacks 0
Core_3_L1I_writeback_hit 0
Core_3_L1I_writeback_miss 0
Core_3_L1I_prefetch_requested 0
Core_3_L1I_prefetch_dropped 0
Core_3_L1I_prefetch_issued 0
Core_3_L1I_prefetch_filled 0
Core_3_L1I_prefetch_useful 0
Core_3_L1I_prefetch_useless 0
Core_3_L1I_prefetch_late 0
Core_3_L1I_average_miss_latency 96.24640

Core_3_L1I_rq_access 160544585
Core_3_L1I_rq_forward 0
Core_3_L1I_rq_merged 127782019
Core_3_L1I_rq_to_cache 32762566
Core_3_L1I_rq_full 0

Core_3_L1I_wq_access 0
Core_3_L1I_wq_forward 0
Core_3_L1I_wq_merged 0
Core_3_L1I_wq_to_cache 0
Core_3_L1I_wq_full 0

Core_3_L1I_pq_access 0
Core_3_L1I_pq_forward 0
Core_3_L1I_pq_merged 0
Core_3_L1I_pq_to_cache 0
Core_3_L1I_pq_full 0

Core_3_L1I_acc_epochs 225863
Core_3_L1I_acc_level_0 225863
Core_3_L1I_acc_level_1 0
Core_3_L1I_acc_level_2 0
Core_3_L1I_acc_level_3 0
Core_3_L1I_acc_level_4 0
Core_3_L1I_acc_level_5 0
Core_3_L1I_acc_level_6 0
Core_3_L1I_acc_level_7 0
Core_3_L1I_acc_level_8 0
Core_3_L1I_acc_level_9 0

Core_3_L2C_total_access 2145705
Core_3_L2C_total_hit 659693
Core_3_L2C_total_miss 1486012
Core_3_L2C_loads 1615321
Core_3_L2C_load_hit 255336
Core_3_L2C_load_miss 1359985
Core_3_L2C_RFOs 147622
Core_3_L2C_RFO_hit 23722
Core_3_L2C_RFO_miss 123900
Core_3_L2C_prefetches 0
Core_3_L2C_prefetch_hit 0
Core_3_L2C_prefetch_miss 0
Core_3_L2C_writebacks 382762
Core_3_L2C_writeback_hit 380635
Core_3_L2C_writeback_miss 2127
Core_3_L2C_prefetch_requested 0
Core_3_L2C_prefetch_dropped 0
Core_3_L2C_prefetch_issued 0
Core_3_L2C_prefetch_filled 0
Core_3_L2C_prefetch_useful 0
Core_3_L2C_prefetch_useless 0
Core_3_L2C_prefetch_late 0
Core_3_L2C_average_miss_latency 177.98547

Core_3_L2C_rq_access 1880509
Core_3_L2C_rq_forward 0
Core_3_L2C_rq_merged 0
Core_3_L2C_rq_to_cache 1880460
Core_3_L2C_rq_full 0

Core_3_L2C_wq_access 409088
Core_3_L2C_wq_forward 49
Core_3_L2C_wq_merged 0
Core_3_L2C_wq_to_cache 409088
Core_3_L2C_wq_full 0

Core_3_L2C_pq_access 0
Core_3_L2C_pq_forward 0
Core_3_L2C_pq_merged 0
Core_3_L2C_pq_to_cache 0
Core_3_L2C_pq_full 0

Core_3_L2C_acc_epochs 225863
Core_3_L2C_acc_level_0 225863
Core_3_L2C_acc_level_1 0
Core_3_L2C_acc_level_2 0
Core_3_L2C_acc_level_3 0
Core_3_L2C_acc_level_4 0
Core_3_L2C_acc_level_5 0
Core_3_L2C_acc_level_6 0
Core_3_L2C_acc_level_7 0
Core_3_L2C_acc_level_8 0
Core_3_L2C_acc_level_9 0

Core_3_LLC_total_access 1830863
Core_3_LLC_total_hit 778990
Core_3_LLC_total_miss 1051873
Core_3_LLC_loads 1359985
Core_3_LLC_load_hit 549997
Core_3_LLC_load_miss 809988
Core_3_LLC_RFOs 123898
Core_3_LLC_RFO_hit 43125
Core_3_LLC_RFO_miss 80773
Core_3_LLC_prefetches 0
Core_3_LLC_prefetch_hit 0
Core_3_LLC_prefetch_miss 0
Core_3_LLC_writebacks 346980
Core_3_LLC_writeback_hit 185868
Core_3_LLC_writeback_miss 161112
Core_3_LLC_prefetch_requested 0
Core_3_LLC_prefetch_dropped 0
Core_3_LLC_prefetch_issued 0
Core_3_LLC_prefetch_filled 0
Core_3_LLC_prefetch_useful 0
Core_3_LLC_prefetch_useless 0
Core_3_LLC_prefetch_late 0
Core_3_LLC_average_miss_latency 707.03042

Core_3_LLC_rq_access 6463948
Core_3_LLC_rq_forward 0
Core_3_LLC_rq_merged 0
Core_3_LLC_rq_to_cache 6463923
Core_3_LLC_rq_full 0

Core_3_LLC_wq_access 1517734
Core_3_LLC_wq_forward 25
Core_3_LLC_wq_merged 0
Core_3_LLC_wq_to_cache 1517734
Core_3_LLC_wq_full 0

Core_3_LLC_pq_access 0
Core_3_LLC_pq_forward 0
Core_3_LLC_pq_merged 0
Core_3_LLC_pq_to_cache 0
Core_3_LLC_pq_full 0

Core_3_LLC_acc_epochs 476311
Core_3_LLC_acc_level_0 476311
Core_3_LLC_acc_level_1 0
Core_3_LLC_acc_level_2 0
Core_3_LLC_acc_level_3 0
Core_3_LLC_acc_level_4 0
Core_3_LLC_acc_level_5 0
Core_3_LLC_acc_level_6 0
Core_3_LLC_acc_level_7 0
Core_3_LLC_acc_level_8 0
Core_3_LLC_acc_level_9 0

Core_3_major_page_fault 0
Core_3_minor_page_fault 44691

Channel_0_RQ_row_buffer_hit 127562
Channel_0_RQ_row_buffer_miss 1756838
Channel_0_WQ_row_buffer_hit 102658
Channel_0_WQ_row_buffer_miss 509588
Channel_0_WQ_full 0
Channel_0_dbus_congested 410613

Channel_1_RQ_row_buffer_hit 127929
Channel_1_RQ_row_buffer_miss 1749569
Channel_1_WQ_row_buffer_hit 102039
Channel_1_WQ_row_buffer_miss 508533
Channel_1_WQ_full 0
Channel_1_dbus_congested 408869

avg_congested_cycle 10

DRAM_bw_pochs 1905244
DRAM_bw_level_0 1815394
DRAM_bw_level_1 83479
DRAM_bw_level_2 6121
DRAM_bw_level_3 250
