*************************************************
   ChampSim Multicore Out-of-Order Simulator
   Last compiled: Mar 31 2025 20:14:32
*************************************************
parsing config file: /data3/config/spp_dev2.ini

trace_0 /data3/CASSANDRA/traces/cassandra_phase4_core0.trace.xz
trace_1 /data3/CASSANDRA/traces/cassandra_phase4_core1.trace.xz
trace_2 /data3/CASSANDRA/traces/cassandra_phase4_core2.trace.xz
trace_3 /data3/CASSANDRA/traces/cassandra_phase4_core3.trace.xz
adding L2C_PREFETCHER: SPP_dev2
Initialize SIGNATURE TABLE
ST_SET: 1
ST_WAY: 256
ST_TAG_BIT: 16
ST_TAG_MASK: ffff

Initialize PATTERN TABLE
PT_SET: 512
PT_WAY: 4
SIG_DELTA_BIT: 7
C_SIG_BIT: 4
C_DELTA_BIT: 4

Initialize PREFETCH FILTER
FILTER_SET: 1024
fill_threshold: 90
pf_threshold: 40

adding L2C_PREFETCHER: SPP_dev2
Initialize SIGNATURE TABLE
ST_SET: 1
ST_WAY: 256
ST_TAG_BIT: 16
ST_TAG_MASK: ffff

Initialize PATTERN TABLE
PT_SET: 512
PT_WAY: 4
SIG_DELTA_BIT: 7
C_SIG_BIT: 4
C_DELTA_BIT: 4

Initialize PREFETCH FILTER
FILTER_SET: 1024
fill_threshold: 90
pf_threshold: 40

adding L2C_PREFETCHER: SPP_dev2
Initialize SIGNATURE TABLE
ST_SET: 1
ST_WAY: 256
ST_TAG_BIT: 16
ST_TAG_MASK: ffff

Initialize PATTERN TABLE
PT_SET: 512
PT_WAY: 4
SIG_DELTA_BIT: 7
C_SIG_BIT: 4
C_DELTA_BIT: 4

Initialize PREFETCH FILTER
FILTER_SET: 1024
fill_threshold: 90
pf_threshold: 40

adding L2C_PREFETCHER: SPP_dev2
Initialize SIGNATURE TABLE
ST_SET: 1
ST_WAY: 256
ST_TAG_BIT: 16
ST_TAG_MASK: ffff

Initialize PATTERN TABLE
PT_SET: 512
PT_WAY: 4
SIG_DELTA_BIT: 7
C_SIG_BIT: 4
C_DELTA_BIT: 4

Initialize PREFETCH FILTER
FILTER_SET: 1024
fill_threshold: 90
pf_threshold: 40

Initialize SHIP state
warmup_instructions 50000000
simulation_instructions 150000000
champsim_seed 8758
measure_ipc 0
measure_ipc_epoch 1000
measure_dram_bw 1
measure_dram_bw_epoch 256
measure_cache_acc 1
measure_cache_acc_epoch 1024
l1d_perfect 0
l2c_perfect 0
llc_perfect 0
l1d_semi_perfect 0
l2c_semi_perfect 0
llc_semi_perfect 0
semi_perfect_cache_page_buffer_size 64

num_cpus 4
cpu_freq 4000
dram_io_freq 2400
page_size 4096
block_size 64
max_read_per_cycle 8
max_fill_per_cycle 1
dram_channels 2
log2_dram_channels 1
dram_ranks 1
dram_banks 8
dram_rows 65536
dram_columns 128
dram_row_size 8
dram_size 8192
dram_pages 2097152

fetch_width 6
decode_width 6
exec_width 4
lq_width 2
sq_width 2
retire_width 4
scheduler_size 128
branch_mispredict_penalty 20
rob_size 256
lq_size 72
sq_size 56
num_instr_destinations_sparc 4
num_instr_destinations 2
num_instr_sources 4

itlb_set 16
itlb_way 8
itlb_rq_size 16
itlb_wq_size 16
itlb_pq_size 0
itlb_mshr_size 8
itlb_latency 1

dtlb_set 16
dtlb_way 4
dtlb_rq_size 16
dtlb_wq_size 16
dtlb_pq_size 0
dtlb_mshr_size 8
dtlb_latency 1

stlb_set 128
stlb_way 12
stlb_rq_size 32
stlb_wq_size 32
stlb_pq_size 0
stlb_mshr_size 16
stlb_latency 8

l1i_size 32
l1i_set 64
l1i_way 8
l1i_rq_size 64
l1i_wq_size 64
l1i_pq_size 8
l1i_mshr_size 8
l1i_latency 1

l1d_size 32
l1d_set 64
l1d_way 8
l1d_rq_size 64
l1d_wq_size 64
l1d_pq_size 8
l1d_mshr_size 16
l1d_latency 4

l2c_size 256
l2c_set 512
l2c_way 8
l2c_rq_size 32
l2c_wq_size 32
l2c_pq_size 32
l2c_mshr_size 32
l2c_latency 10

llc_size 8192
llc_set 8192
llc_way 16
llc_rq_size 128
llc_wq_size 128
llc_pq_size 128
llc_mshr_size 256
llc_latency 20

dram_channel_width 8
dram_wq_size 64
dram_rq_size 64
tRP 15
tRCD 15
tCAS 12.5
dram_dbus_turn_around_time 30
dram_write_high_wm 56
dram_write_low_wm 48
min_dram_writes_per_switch 16
dram_mtps 2400
dram_dbus_return_time 13


Heartbeat CPU  2 instructions:    1000002 cycles:     330412 heartbeat IPC: 3.02653 cumulative IPC: 3.02653 (Simulation time: 0 hr 0 min 5 sec) 
Heartbeat CPU  1 instructions:    1000001 cycles:     336093 heartbeat IPC: 2.97537 cumulative IPC: 2.97537 (Simulation time: 0 hr 0 min 5 sec) 
Heartbeat CPU  3 instructions:    1000002 cycles:     336280 heartbeat IPC: 2.97372 cumulative IPC: 2.97372 (Simulation time: 0 hr 0 min 6 sec) 
Heartbeat CPU  0 instructions:    1000000 cycles:     508331 heartbeat IPC: 1.96722 cumulative IPC: 1.96722 (Simulation time: 0 hr 0 min 8 sec) 
Heartbeat CPU  1 instructions:    2000000 cycles:     647593 heartbeat IPC: 3.21027 cumulative IPC: 3.08836 (Simulation time: 0 hr 0 min 11 sec) 
Heartbeat CPU  2 instructions:    2000003 cycles:     656017 heartbeat IPC: 3.07121 cumulative IPC: 3.04871 (Simulation time: 0 hr 0 min 11 sec) 
Heartbeat CPU  3 instructions:    2000002 cycles:     659163 heartbeat IPC: 3.09710 cumulative IPC: 3.03415 (Simulation time: 0 hr 0 min 11 sec) 
Heartbeat CPU  0 instructions:    2000003 cycles:     969790 heartbeat IPC: 2.16705 cumulative IPC: 2.06231 (Simulation time: 0 hr 0 min 16 sec) 
Heartbeat CPU  3 instructions:    3000001 cycles:     983008 heartbeat IPC: 3.08789 cumulative IPC: 3.05186 (Simulation time: 0 hr 0 min 16 sec) 
Heartbeat CPU  1 instructions:    3000001 cycles:    1065269 heartbeat IPC: 2.39420 cumulative IPC: 2.81619 (Simulation time: 0 hr 0 min 17 sec) 
Heartbeat CPU  2 instructions:    3000002 cycles:    1239269 heartbeat IPC: 1.71452 cumulative IPC: 2.42078 (Simulation time: 0 hr 0 min 19 sec) 
Heartbeat CPU  0 instructions:    3000002 cycles:    1295053 heartbeat IPC: 3.07443 cumulative IPC: 2.31651 (Simulation time: 0 hr 0 min 20 sec) 
Heartbeat CPU  3 instructions:    4000000 cycles:    1347750 heartbeat IPC: 2.74166 cumulative IPC: 2.96791 (Simulation time: 0 hr 0 min 20 sec) 
Heartbeat CPU  1 instructions:    4000000 cycles:    1572161 heartbeat IPC: 1.97280 cumulative IPC: 2.54427 (Simulation time: 0 hr 0 min 24 sec) 
Heartbeat CPU  0 instructions:    4000000 cycles:    1617979 heartbeat IPC: 3.09668 cumulative IPC: 2.47222 (Simulation time: 0 hr 0 min 25 sec) 
Heartbeat CPU  2 instructions:    4000000 cycles:    1656994 heartbeat IPC: 2.39391 cumulative IPC: 2.41401 (Simulation time: 0 hr 0 min 25 sec) 
Heartbeat CPU  1 instructions:    5000000 cycles:    1902076 heartbeat IPC: 3.03108 cumulative IPC: 2.62871 (Simulation time: 0 hr 0 min 29 sec) 
Heartbeat CPU  3 instructions:    5000001 cycles:    1917723 heartbeat IPC: 1.75447 cumulative IPC: 2.60726 (Simulation time: 0 hr 0 min 29 sec) 
Heartbeat CPU  0 instructions:    5000000 cycles:    1943423 heartbeat IPC: 3.07273 cumulative IPC: 2.57278 (Simulation time: 0 hr 0 min 30 sec) 
Heartbeat CPU  2 instructions:    5000001 cycles:    1984246 heartbeat IPC: 3.05575 cumulative IPC: 2.51985 (Simulation time: 0 hr 0 min 31 sec) 
Heartbeat CPU  1 instructions:    6000000 cycles:    2229461 heartbeat IPC: 3.05451 cumulative IPC: 2.69123 (Simulation time: 0 hr 0 min 35 sec) 
Heartbeat CPU  3 instructions:    6000000 cycles:    2257754 heartbeat IPC: 2.94091 cumulative IPC: 2.65751 (Simulation time: 0 hr 0 min 35 sec) 
Heartbeat CPU  2 instructions:    6000003 cycles:    2307528 heartbeat IPC: 3.09328 cumulative IPC: 2.60019 (Simulation time: 0 hr 0 min 36 sec) 
Heartbeat CPU  0 instructions:    6000003 cycles:    2320540 heartbeat IPC: 2.65171 cumulative IPC: 2.58561 (Simulation time: 0 hr 0 min 36 sec) 
Heartbeat CPU  1 instructions:    7000002 cycles:    2584043 heartbeat IPC: 2.82023 cumulative IPC: 2.70893 (Simulation time: 0 hr 0 min 41 sec) 
Heartbeat CPU  3 instructions:    7000000 cycles:    2584828 heartbeat IPC: 3.05741 cumulative IPC: 2.70811 (Simulation time: 0 hr 0 min 41 sec) 
Heartbeat CPU  2 instructions:    7000001 cycles:    2632878 heartbeat IPC: 3.07361 cumulative IPC: 2.65869 (Simulation time: 0 hr 0 min 41 sec) 
Heartbeat CPU  0 instructions:    7000000 cycles:    2859171 heartbeat IPC: 1.85655 cumulative IPC: 2.44826 (Simulation time: 0 hr 0 min 45 sec) 
Heartbeat CPU  1 instructions:    8000000 cycles:    2947140 heartbeat IPC: 2.75408 cumulative IPC: 2.71450 (Simulation time: 0 hr 0 min 46 sec) 
Heartbeat CPU  2 instructions:    8000000 cycles:    2955256 heartbeat IPC: 3.10195 cumulative IPC: 2.70704 (Simulation time: 0 hr 0 min 46 sec) 
Heartbeat CPU  3 instructions:    8000000 cycles:    2967029 heartbeat IPC: 2.61642 cumulative IPC: 2.69630 (Simulation time: 0 hr 0 min 46 sec) 
Heartbeat CPU  0 instructions:    8000000 cycles:    3248580 heartbeat IPC: 2.56799 cumulative IPC: 2.46261 (Simulation time: 0 hr 0 min 51 sec) 
Heartbeat CPU  1 instructions:    9000002 cycles:    3287408 heartbeat IPC: 2.93887 cumulative IPC: 2.73772 (Simulation time: 0 hr 0 min 52 sec) 
Heartbeat CPU  3 instructions:    9000000 cycles:    3300383 heartbeat IPC: 2.99981 cumulative IPC: 2.72696 (Simulation time: 0 hr 0 min 52 sec) 
Heartbeat CPU  2 instructions:    9000002 cycles:    3328212 heartbeat IPC: 2.68129 cumulative IPC: 2.70416 (Simulation time: 0 hr 0 min 52 sec) 
Heartbeat CPU  1 instructions:   10000003 cycles:    3605958 heartbeat IPC: 3.13923 cumulative IPC: 2.77319 (Simulation time: 0 hr 0 min 57 sec) 
Heartbeat CPU  2 instructions:   10000002 cycles:    3651274 heartbeat IPC: 3.09538 cumulative IPC: 2.73877 (Simulation time: 0 hr 0 min 57 sec) 
Heartbeat CPU  0 instructions:    9000002 cycles:    3690160 heartbeat IPC: 2.26460 cumulative IPC: 2.43892 (Simulation time: 0 hr 0 min 58 sec) 
Heartbeat CPU  3 instructions:   10000001 cycles:    3696143 heartbeat IPC: 2.52679 cumulative IPC: 2.70552 (Simulation time: 0 hr 0 min 58 sec) 
Heartbeat CPU  1 instructions:   11000000 cycles:    3927465 heartbeat IPC: 3.11034 cumulative IPC: 2.80079 (Simulation time: 0 hr 1 min 2 sec) 
Heartbeat CPU  3 instructions:   11000002 cycles:    4021163 heartbeat IPC: 3.07674 cumulative IPC: 2.73553 (Simulation time: 0 hr 1 min 3 sec) 
Heartbeat CPU  2 instructions:   11000001 cycles:    4095213 heartbeat IPC: 2.25256 cumulative IPC: 2.68606 (Simulation time: 0 hr 1 min 4 sec) 
Heartbeat CPU  0 instructions:   10000000 cycles:    4102031 heartbeat IPC: 2.42794 cumulative IPC: 2.43782 (Simulation time: 0 hr 1 min 4 sec) 
Heartbeat CPU  1 instructions:   12000000 cycles:    4248922 heartbeat IPC: 3.11084 cumulative IPC: 2.82425 (Simulation time: 0 hr 1 min 7 sec) 
Heartbeat CPU  3 instructions:   12000000 cycles:    4346595 heartbeat IPC: 3.07283 cumulative IPC: 2.76078 (Simulation time: 0 hr 1 min 9 sec) 
Heartbeat CPU  2 instructions:   12000000 cycles:    4421434 heartbeat IPC: 3.06540 cumulative IPC: 2.71405 (Simulation time: 0 hr 1 min 10 sec) 
Heartbeat CPU  0 instructions:   11000001 cycles:    4443717 heartbeat IPC: 2.92667 cumulative IPC: 2.47541 (Simulation time: 0 hr 1 min 10 sec) 
Heartbeat CPU  1 instructions:   13000000 cycles:    4570678 heartbeat IPC: 3.10795 cumulative IPC: 2.84422 (Simulation time: 0 hr 1 min 13 sec) 
Heartbeat CPU  3 instructions:   13000002 cycles:    4671415 heartbeat IPC: 3.07863 cumulative IPC: 2.78288 (Simulation time: 0 hr 1 min 14 sec) 
Heartbeat CPU  0 instructions:   12000000 cycles:    4771641 heartbeat IPC: 3.04948 cumulative IPC: 2.51486 (Simulation time: 0 hr 1 min 16 sec) 
Heartbeat CPU  2 instructions:   13000001 cycles:    4795075 heartbeat IPC: 2.67637 cumulative IPC: 2.71112 (Simulation time: 0 hr 1 min 16 sec) 
Heartbeat CPU  1 instructions:   14000001 cycles:    4917000 heartbeat IPC: 2.88749 cumulative IPC: 2.84726 (Simulation time: 0 hr 1 min 19 sec) 
Heartbeat CPU  3 instructions:   14000000 cycles:    5025037 heartbeat IPC: 2.82787 cumulative IPC: 2.78605 (Simulation time: 0 hr 1 min 20 sec) 
Heartbeat CPU  0 instructions:   13000002 cycles:    5100198 heartbeat IPC: 3.04362 cumulative IPC: 2.54892 (Simulation time: 0 hr 1 min 22 sec) 
Heartbeat CPU  2 instructions:   14000001 cycles:    5144559 heartbeat IPC: 2.86136 cumulative IPC: 2.72132 (Simulation time: 0 hr 1 min 22 sec) 
Heartbeat CPU  1 instructions:   15000000 cycles:    5233331 heartbeat IPC: 3.16124 cumulative IPC: 2.86624 (Simulation time: 0 hr 1 min 24 sec) 
Heartbeat CPU  3 instructions:   15000003 cycles:    5496684 heartbeat IPC: 2.12024 cumulative IPC: 2.72892 (Simulation time: 0 hr 1 min 28 sec) 
Heartbeat CPU  2 instructions:   15000002 cycles:    5508405 heartbeat IPC: 2.74842 cumulative IPC: 2.72311 (Simulation time: 0 hr 1 min 28 sec) 
Heartbeat CPU  0 instructions:   14000001 cycles:    5566567 heartbeat IPC: 2.14422 cumulative IPC: 2.51502 (Simulation time: 0 hr 1 min 29 sec) 
Heartbeat CPU  1 instructions:   16000000 cycles:    5631483 heartbeat IPC: 2.51160 cumulative IPC: 2.84117 (Simulation time: 0 hr 1 min 30 sec) 
Heartbeat CPU  3 instructions:   16000000 cycles:    5823162 heartbeat IPC: 3.06298 cumulative IPC: 2.74765 (Simulation time: 0 hr 1 min 33 sec) 
Heartbeat CPU  0 instructions:   15000000 cycles:    5965302 heartbeat IPC: 2.50793 cumulative IPC: 2.51454 (Simulation time: 0 hr 1 min 35 sec) 
Heartbeat CPU  2 instructions:   16000000 cycles:    6006440 heartbeat IPC: 2.00789 cumulative IPC: 2.66381 (Simulation time: 0 hr 1 min 35 sec) 
Heartbeat CPU  3 instructions:   17000000 cycles:    6150626 heartbeat IPC: 3.05377 cumulative IPC: 2.76395 (Simulation time: 0 hr 1 min 37 sec) 
Heartbeat CPU  0 instructions:   16000000 cycles:    6293460 heartbeat IPC: 3.04731 cumulative IPC: 2.54232 (Simulation time: 0 hr 1 min 39 sec) 
Heartbeat CPU  2 instructions:   17000001 cycles:    6379634 heartbeat IPC: 2.67957 cumulative IPC: 2.66473 (Simulation time: 0 hr 1 min 40 sec) 
Heartbeat CPU  1 instructions:   17000001 cycles:    6417550 heartbeat IPC: 1.27216 cumulative IPC: 2.64899 (Simulation time: 0 hr 1 min 41 sec) 
Heartbeat CPU  3 instructions:   18000000 cycles:    6550902 heartbeat IPC: 2.49828 cumulative IPC: 2.74771 (Simulation time: 0 hr 1 min 43 sec) 
Heartbeat CPU  0 instructions:   17000003 cycles:    6619833 heartbeat IPC: 3.06399 cumulative IPC: 2.56804 (Simulation time: 0 hr 1 min 44 sec) 
Heartbeat CPU  2 instructions:   18000000 cycles:    6706950 heartbeat IPC: 3.05515 cumulative IPC: 2.68378 (Simulation time: 0 hr 1 min 46 sec) 
Heartbeat CPU  1 instructions:   18000003 cycles:    6774917 heartbeat IPC: 2.79825 cumulative IPC: 2.65686 (Simulation time: 0 hr 1 min 47 sec) 
Heartbeat CPU  3 instructions:   19000001 cycles:    6942578 heartbeat IPC: 2.55313 cumulative IPC: 2.73674 (Simulation time: 0 hr 1 min 49 sec) 
Heartbeat CPU  2 instructions:   19000000 cycles:    7031532 heartbeat IPC: 3.08089 cumulative IPC: 2.70211 (Simulation time: 0 hr 1 min 50 sec) 
Heartbeat CPU  0 instructions:   18000001 cycles:    7161428 heartbeat IPC: 1.84639 cumulative IPC: 2.51347 (Simulation time: 0 hr 1 min 52 sec) 
Heartbeat CPU  3 instructions:   20000000 cycles:    7326151 heartbeat IPC: 2.60706 cumulative IPC: 2.72995 (Simulation time: 0 hr 1 min 54 sec) 
Heartbeat CPU  2 instructions:   20000000 cycles:    7352422 heartbeat IPC: 3.11633 cumulative IPC: 2.72019 (Simulation time: 0 hr 1 min 54 sec) 
Heartbeat CPU  0 instructions:   19000000 cycles:    7616998 heartbeat IPC: 2.19505 cumulative IPC: 2.49442 (Simulation time: 0 hr 1 min 58 sec) 
Heartbeat CPU  2 instructions:   21000002 cycles:    7676524 heartbeat IPC: 3.08545 cumulative IPC: 2.73561 (Simulation time: 0 hr 1 min 59 sec) 
Heartbeat CPU  1 instructions:   19000000 cycles:    7688164 heartbeat IPC: 1.09499 cumulative IPC: 2.47133 (Simulation time: 0 hr 1 min 59 sec) 
Heartbeat CPU  3 instructions:   21000003 cycles:    7692466 heartbeat IPC: 2.72990 cumulative IPC: 2.72994 (Simulation time: 0 hr 1 min 59 sec) 
Heartbeat CPU  2 instructions:   22000001 cycles:    7995975 heartbeat IPC: 3.13037 cumulative IPC: 2.75138 (Simulation time: 0 hr 2 min 3 sec) 
Heartbeat CPU  0 instructions:   20000000 cycles:    8018552 heartbeat IPC: 2.49032 cumulative IPC: 2.49422 (Simulation time: 0 hr 2 min 4 sec) 
Heartbeat CPU  3 instructions:   22000003 cycles:    8033447 heartbeat IPC: 2.93271 cumulative IPC: 2.73855 (Simulation time: 0 hr 2 min 4 sec) 
Heartbeat CPU  2 instructions:   23000001 cycles:    8321263 heartbeat IPC: 3.07420 cumulative IPC: 2.76400 (Simulation time: 0 hr 2 min 8 sec) 
Heartbeat CPU  3 instructions:   23000000 cycles:    8363482 heartbeat IPC: 3.02997 cumulative IPC: 2.75005 (Simulation time: 0 hr 2 min 8 sec) 
Heartbeat CPU  0 instructions:   21000000 cycles:    8499758 heartbeat IPC: 2.07811 cumulative IPC: 2.47066 (Simulation time: 0 hr 2 min 10 sec) 
Heartbeat CPU  1 instructions:   20000000 cycles:    8601029 heartbeat IPC: 1.09545 cumulative IPC: 2.32530 (Simulation time: 0 hr 2 min 11 sec) 
Heartbeat CPU  3 instructions:   24000000 cycles:    8736307 heartbeat IPC: 2.68222 cumulative IPC: 2.74716 (Simulation time: 0 hr 2 min 13 sec) 
Heartbeat CPU  2 instructions:   24000000 cycles:    8819182 heartbeat IPC: 2.00836 cumulative IPC: 2.72134 (Simulation time: 0 hr 2 min 14 sec) 
Heartbeat CPU  0 instructions:   22000000 cycles:    9042652 heartbeat IPC: 1.84198 cumulative IPC: 2.43291 (Simulation time: 0 hr 2 min 17 sec) 
Heartbeat CPU  1 instructions:   21000001 cycles:    9095105 heartbeat IPC: 2.02398 cumulative IPC: 2.30893 (Simulation time: 0 hr 2 min 18 sec) 
Heartbeat CPU  2 instructions:   25000003 cycles:    9155633 heartbeat IPC: 2.97221 cumulative IPC: 2.73056 (Simulation time: 0 hr 2 min 19 sec) 
Heartbeat CPU  3 instructions:   25000003 cycles:    9182749 heartbeat IPC: 2.23994 cumulative IPC: 2.72250 (Simulation time: 0 hr 2 min 20 sec) 
Heartbeat CPU  0 instructions:   23000003 cycles:    9380486 heartbeat IPC: 2.96004 cumulative IPC: 2.45190 (Simulation time: 0 hr 2 min 23 sec) 
Heartbeat CPU  1 instructions:   22000002 cycles:    9427443 heartbeat IPC: 3.00899 cumulative IPC: 2.33361 (Simulation time: 0 hr 2 min 24 sec) 
Heartbeat CPU  3 instructions:   26000002 cycles:    9519642 heartbeat IPC: 2.96830 cumulative IPC: 2.73120 (Simulation time: 0 hr 2 min 25 sec) 
Heartbeat CPU  2 instructions:   26000000 cycles:    9530668 heartbeat IPC: 2.66641 cumulative IPC: 2.72804 (Simulation time: 0 hr 2 min 26 sec) 
Heartbeat CPU  0 instructions:   24000000 cycles:    9706109 heartbeat IPC: 3.07103 cumulative IPC: 2.47267 (Simulation time: 0 hr 2 min 29 sec) 
Heartbeat CPU  1 instructions:   23000002 cycles:    9744297 heartbeat IPC: 3.15603 cumulative IPC: 2.36036 (Simulation time: 0 hr 2 min 30 sec) 
Heartbeat CPU  3 instructions:   27000000 cycles:    9849319 heartbeat IPC: 3.03327 cumulative IPC: 2.74131 (Simulation time: 0 hr 2 min 31 sec) 
Heartbeat CPU  2 instructions:   27000000 cycles:    9901885 heartbeat IPC: 2.69384 cumulative IPC: 2.72675 (Simulation time: 0 hr 2 min 32 sec) 
Heartbeat CPU  0 instructions:   25000000 cycles:   10030885 heartbeat IPC: 3.07905 cumulative IPC: 2.49230 (Simulation time: 0 hr 2 min 35 sec) 
Heartbeat CPU  1 instructions:   24000000 cycles:   10063916 heartbeat IPC: 3.12872 cumulative IPC: 2.38476 (Simulation time: 0 hr 2 min 35 sec) 
Heartbeat CPU  3 instructions:   28000000 cycles:   10175273 heartbeat IPC: 3.06792 cumulative IPC: 2.75177 (Simulation time: 0 hr 2 min 37 sec) 
Heartbeat CPU  2 instructions:   28000000 cycles:   10285685 heartbeat IPC: 2.60552 cumulative IPC: 2.72223 (Simulation time: 0 hr 2 min 39 sec) 
Heartbeat CPU  1 instructions:   25000003 cycles:   10373834 heartbeat IPC: 3.22667 cumulative IPC: 2.40991 (Simulation time: 0 hr 2 min 40 sec) 
Heartbeat CPU  0 instructions:   26000000 cycles:   10506391 heartbeat IPC: 2.10302 cumulative IPC: 2.47468 (Simulation time: 0 hr 2 min 42 sec) 
Heartbeat CPU  3 instructions:   29000003 cycles:   10555257 heartbeat IPC: 2.63170 cumulative IPC: 2.74745 (Simulation time: 0 hr 2 min 43 sec) 
Heartbeat CPU  2 instructions:   29000003 cycles:   10618864 heartbeat IPC: 3.00140 cumulative IPC: 2.73099 (Simulation time: 0 hr 2 min 44 sec) 
Heartbeat CPU  0 instructions:   27000001 cycles:   10838476 heartbeat IPC: 3.01128 cumulative IPC: 2.49113 (Simulation time: 0 hr 2 min 48 sec) 
Heartbeat CPU  1 instructions:   26000002 cycles:   10845609 heartbeat IPC: 2.11965 cumulative IPC: 2.39728 (Simulation time: 0 hr 2 min 48 sec) 
Heartbeat CPU  2 instructions:   30000000 cycles:   10945852 heartbeat IPC: 3.05821 cumulative IPC: 2.74076 (Simulation time: 0 hr 2 min 50 sec) 
Heartbeat CPU  3 instructions:   30000000 cycles:   10965278 heartbeat IPC: 2.43889 cumulative IPC: 2.73591 (Simulation time: 0 hr 2 min 50 sec) 
Heartbeat CPU  1 instructions:   27000001 cycles:   11167360 heartbeat IPC: 3.10799 cumulative IPC: 2.41776 (Simulation time: 0 hr 2 min 54 sec) 
Heartbeat CPU  0 instructions:   28000000 cycles:   11167988 heartbeat IPC: 3.03479 cumulative IPC: 2.50717 (Simulation time: 0 hr 2 min 54 sec) 
Heartbeat CPU  2 instructions:   31000001 cycles:   11270748 heartbeat IPC: 3.07791 cumulative IPC: 2.75048 (Simulation time: 0 hr 2 min 55 sec) 
Heartbeat CPU  3 instructions:   31000002 cycles:   11291684 heartbeat IPC: 3.06368 cumulative IPC: 2.74538 (Simulation time: 0 hr 2 min 56 sec) 
Heartbeat CPU  0 instructions:   29000003 cycles:   11496918 heartbeat IPC: 3.04017 cumulative IPC: 2.52242 (Simulation time: 0 hr 2 min 59 sec) 
Heartbeat CPU  3 instructions:   32000000 cycles:   11618672 heartbeat IPC: 3.05821 cumulative IPC: 2.75419 (Simulation time: 0 hr 3 min 1 sec) 
Heartbeat CPU  2 instructions:   32000000 cycles:   11630591 heartbeat IPC: 2.77899 cumulative IPC: 2.75136 (Simulation time: 0 hr 3 min 1 sec) 
Heartbeat CPU  1 instructions:   28000000 cycles:   11737910 heartbeat IPC: 1.75269 cumulative IPC: 2.38543 (Simulation time: 0 hr 3 min 3 sec) 
Heartbeat CPU  0 instructions:   30000000 cycles:   11832586 heartbeat IPC: 2.97913 cumulative IPC: 2.53537 (Simulation time: 0 hr 3 min 5 sec) 
Heartbeat CPU  2 instructions:   33000001 cycles:   11955771 heartbeat IPC: 3.07522 cumulative IPC: 2.76017 (Simulation time: 0 hr 3 min 7 sec) 
Heartbeat CPU  3 instructions:   33000000 cycles:   12006882 heartbeat IPC: 2.57593 cumulative IPC: 2.74842 (Simulation time: 0 hr 3 min 8 sec) 
Heartbeat CPU  1 instructions:   29000002 cycles:   12175766 heartbeat IPC: 2.28386 cumulative IPC: 2.38178 (Simulation time: 0 hr 3 min 11 sec) 
Heartbeat CPU  0 instructions:   31000003 cycles:   12227509 heartbeat IPC: 2.53215 cumulative IPC: 2.53527 (Simulation time: 0 hr 3 min 11 sec) 
Heartbeat CPU  2 instructions:   34000000 cycles:   12304156 heartbeat IPC: 2.87038 cumulative IPC: 2.76329 (Simulation time: 0 hr 3 min 12 sec) 
Heartbeat CPU  3 instructions:   34000000 cycles:   12483108 heartbeat IPC: 2.09984 cumulative IPC: 2.72368 (Simulation time: 0 hr 3 min 16 sec) 
Heartbeat CPU  0 instructions:   32000000 cycles:   12555437 heartbeat IPC: 3.04944 cumulative IPC: 2.54870 (Simulation time: 0 hr 3 min 17 sec) 
Heartbeat CPU  1 instructions:   30000002 cycles:   12576204 heartbeat IPC: 2.49727 cumulative IPC: 2.38546 (Simulation time: 0 hr 3 min 17 sec) 
Heartbeat CPU  2 instructions:   35000000 cycles:   12627218 heartbeat IPC: 3.09538 cumulative IPC: 2.77179 (Simulation time: 0 hr 3 min 18 sec) 
Heartbeat CPU  3 instructions:   35000003 cycles:   12873805 heartbeat IPC: 2.55954 cumulative IPC: 2.71870 (Simulation time: 0 hr 3 min 23 sec) 
Heartbeat CPU  0 instructions:   33000003 cycles:   12878810 heartbeat IPC: 3.09241 cumulative IPC: 2.56235 (Simulation time: 0 hr 3 min 23 sec) 
Heartbeat CPU  2 instructions:   36000000 cycles:   12991154 heartbeat IPC: 2.74774 cumulative IPC: 2.77112 (Simulation time: 0 hr 3 min 24 sec) 
Heartbeat CPU  1 instructions:   31000000 cycles:   13050963 heartbeat IPC: 2.10633 cumulative IPC: 2.37530 (Simulation time: 0 hr 3 min 25 sec) 
Heartbeat CPU  3 instructions:   36000000 cycles:   13198968 heartbeat IPC: 3.07537 cumulative IPC: 2.72749 (Simulation time: 0 hr 3 min 27 sec) 
Heartbeat CPU  0 instructions:   34000000 cycles:   13473875 heartbeat IPC: 1.68048 cumulative IPC: 2.52340 (Simulation time: 0 hr 3 min 30 sec) 
Heartbeat CPU  3 instructions:   37000000 cycles:   13530891 heartbeat IPC: 3.01275 cumulative IPC: 2.73448 (Simulation time: 0 hr 3 min 30 sec) 
Heartbeat CPU  2 instructions:   37000002 cycles:   13681447 heartbeat IPC: 1.44866 cumulative IPC: 2.70439 (Simulation time: 0 hr 3 min 33 sec) 
Heartbeat CPU  1 instructions:   32000000 cycles:   13711925 heartbeat IPC: 1.51295 cumulative IPC: 2.33373 (Simulation time: 0 hr 3 min 33 sec) 
Heartbeat CPU  3 instructions:   38000002 cycles:   13855617 heartbeat IPC: 3.07953 cumulative IPC: 2.74257 (Simulation time: 0 hr 3 min 35 sec) 
Heartbeat CPU  2 instructions:   38000002 cycles:   14037620 heartbeat IPC: 2.80762 cumulative IPC: 2.70701 (Simulation time: 0 hr 3 min 38 sec) 
Heartbeat CPU  0 instructions:   35000001 cycles:   14086016 heartbeat IPC: 1.63361 cumulative IPC: 2.48473 (Simulation time: 0 hr 3 min 39 sec) 
Heartbeat CPU  1 instructions:   33000003 cycles:   14097752 heartbeat IPC: 2.59184 cumulative IPC: 2.34080 (Simulation time: 0 hr 3 min 39 sec) 
Heartbeat CPU  3 instructions:   39000001 cycles:   14179967 heartbeat IPC: 3.08309 cumulative IPC: 2.75036 (Simulation time: 0 hr 3 min 40 sec) 
Heartbeat CPU  2 instructions:   39000002 cycles:   14365046 heartbeat IPC: 3.05413 cumulative IPC: 2.71492 (Simulation time: 0 hr 3 min 42 sec) 
Heartbeat CPU  3 instructions:   40000000 cycles:   14499356 heartbeat IPC: 3.13098 cumulative IPC: 2.75874 (Simulation time: 0 hr 3 min 44 sec) 
Heartbeat CPU  2 instructions:   40000000 cycles:   14693031 heartbeat IPC: 3.04891 cumulative IPC: 2.72238 (Simulation time: 0 hr 3 min 47 sec) 
Heartbeat CPU  1 instructions:   34000000 cycles:   14727890 heartbeat IPC: 1.58695 cumulative IPC: 2.30855 (Simulation time: 0 hr 3 min 47 sec) 
Heartbeat CPU  3 instructions:   41000001 cycles:   14831391 heartbeat IPC: 3.01173 cumulative IPC: 2.76441 (Simulation time: 0 hr 3 min 49 sec) 
Heartbeat CPU  0 instructions:   36000000 cycles:   14968676 heartbeat IPC: 1.13294 cumulative IPC: 2.40502 (Simulation time: 0 hr 3 min 51 sec) 
Heartbeat CPU  2 instructions:   41000000 cycles:   15021387 heartbeat IPC: 3.04548 cumulative IPC: 2.72944 (Simulation time: 0 hr 3 min 51 sec) 
Heartbeat CPU  3 instructions:   42000000 cycles:   15353577 heartbeat IPC: 1.91502 cumulative IPC: 2.73552 (Simulation time: 0 hr 3 min 55 sec) 
Heartbeat CPU  1 instructions:   35000000 cycles:   15375401 heartbeat IPC: 1.54438 cumulative IPC: 2.27636 (Simulation time: 0 hr 3 min 55 sec) 
Heartbeat CPU  2 instructions:   42000000 cycles:   15474182 heartbeat IPC: 2.20850 cumulative IPC: 2.71420 (Simulation time: 0 hr 3 min 56 sec) 
Heartbeat CPU  0 instructions:   37000001 cycles:   15703982 heartbeat IPC: 1.35998 cumulative IPC: 2.35609 (Simulation time: 0 hr 3 min 58 sec) 
Heartbeat CPU  3 instructions:   43000000 cycles:   15830363 heartbeat IPC: 2.09738 cumulative IPC: 2.71630 (Simulation time: 0 hr 3 min 59 sec) 
Heartbeat CPU  2 instructions:   43000001 cycles:   16032666 heartbeat IPC: 1.79056 cumulative IPC: 2.68202 (Simulation time: 0 hr 4 min 2 sec) 
Heartbeat CPU  0 instructions:   38000002 cycles:   16114676 heartbeat IPC: 2.43491 cumulative IPC: 2.35810 (Simulation time: 0 hr 4 min 3 sec) 
Heartbeat CPU  3 instructions:   44000000 cycles:   16292238 heartbeat IPC: 2.16509 cumulative IPC: 2.70067 (Simulation time: 0 hr 4 min 5 sec) 
Heartbeat CPU  1 instructions:   36000000 cycles:   16369712 heartbeat IPC: 1.00572 cumulative IPC: 2.19918 (Simulation time: 0 hr 4 min 6 sec) 
Heartbeat CPU  0 instructions:   39000000 cycles:   16529434 heartbeat IPC: 2.41104 cumulative IPC: 2.35943 (Simulation time: 0 hr 4 min 7 sec) 
Heartbeat CPU  2 instructions:   44000000 cycles:   16782918 heartbeat IPC: 1.33288 cumulative IPC: 2.62171 (Simulation time: 0 hr 4 min 10 sec) 
Heartbeat CPU  3 instructions:   45000001 cycles:   16876839 heartbeat IPC: 1.71057 cumulative IPC: 2.66638 (Simulation time: 0 hr 4 min 12 sec) 
Heartbeat CPU  1 instructions:   37000001 cycles:   16927006 heartbeat IPC: 1.79439 cumulative IPC: 2.18586 (Simulation time: 0 hr 4 min 12 sec) 
Heartbeat CPU  0 instructions:   40000000 cycles:   17058182 heartbeat IPC: 1.89126 cumulative IPC: 2.34492 (Simulation time: 0 hr 4 min 14 sec) 
Heartbeat CPU  2 instructions:   45000001 cycles:   17112110 heartbeat IPC: 3.03774 cumulative IPC: 2.62972 (Simulation time: 0 hr 4 min 15 sec) 
Heartbeat CPU  3 instructions:   46000001 cycles:   17201233 heartbeat IPC: 3.08267 cumulative IPC: 2.67423 (Simulation time: 0 hr 4 min 16 sec) 
Heartbeat CPU  0 instructions:   41000000 cycles:   17382112 heartbeat IPC: 3.08709 cumulative IPC: 2.35875 (Simulation time: 0 hr 4 min 19 sec) 
Heartbeat CPU  2 instructions:   46000002 cycles:   17512411 heartbeat IPC: 2.49812 cumulative IPC: 2.62671 (Simulation time: 0 hr 4 min 21 sec) 
Heartbeat CPU  3 instructions:   47000003 cycles:   17537575 heartbeat IPC: 2.97317 cumulative IPC: 2.67996 (Simulation time: 0 hr 4 min 21 sec) 
Heartbeat CPU  0 instructions:   42000000 cycles:   17745015 heartbeat IPC: 2.75556 cumulative IPC: 2.36686 (Simulation time: 0 hr 4 min 24 sec) 
Heartbeat CPU  1 instructions:   38000002 cycles:   17854755 heartbeat IPC: 1.07788 cumulative IPC: 2.12828 (Simulation time: 0 hr 4 min 25 sec) 
Heartbeat CPU  2 instructions:   47000000 cycles:   17911443 heartbeat IPC: 2.50606 cumulative IPC: 2.62402 (Simulation time: 0 hr 4 min 26 sec) 
Heartbeat CPU  3 instructions:   48000000 cycles:   17918851 heartbeat IPC: 2.62276 cumulative IPC: 2.67874 (Simulation time: 0 hr 4 min 26 sec) 
Heartbeat CPU  3 instructions:   49000003 cycles:   18245845 heartbeat IPC: 3.05817 cumulative IPC: 2.68554 (Simulation time: 0 hr 4 min 30 sec) 
Heartbeat CPU  2 instructions:   48000000 cycles:   18264899 heartbeat IPC: 2.82921 cumulative IPC: 2.62799 (Simulation time: 0 hr 4 min 30 sec) 
Heartbeat CPU  3 instructions:   50000002 cycles:   18568724 heartbeat IPC: 3.09713 cumulative IPC: 2.69270 (Simulation time: 0 hr 4 min 34 sec) 
Heartbeat CPU  0 instructions:   43000001 cycles:   18570937 heartbeat IPC: 1.21077 cumulative IPC: 2.31545 (Simulation time: 0 hr 4 min 34 sec) 
Heartbeat CPU  2 instructions:   49000003 cycles:   18591234 heartbeat IPC: 3.06434 cumulative IPC: 2.63565 (Simulation time: 0 hr 4 min 34 sec) 
Heartbeat CPU  1 instructions:   39000000 cycles:   18648312 heartbeat IPC: 1.26015 cumulative IPC: 2.09134 (Simulation time: 0 hr 4 min 35 sec) 
Heartbeat CPU  3 instructions:   51000001 cycles:   18886859 heartbeat IPC: 3.14332 cumulative IPC: 0.05295 (Simulation time: 0 hr 4 min 39 sec) 
Heartbeat CPU  2 instructions:   50000001 cycles:   18925806 heartbeat IPC: 2.98889 cumulative IPC: 2.64190 (Simulation time: 0 hr 4 min 39 sec) 
Heartbeat CPU  1 instructions:   40000000 cycles:   19194257 heartbeat IPC: 1.83169 cumulative IPC: 2.08396 (Simulation time: 0 hr 4 min 43 sec) 
Heartbeat CPU  3 instructions:   52000000 cycles:   19212112 heartbeat IPC: 3.07453 cumulative IPC: 0.10410 (Simulation time: 0 hr 4 min 43 sec) 
Heartbeat CPU  0 instructions:   44000000 cycles:   19266469 heartbeat IPC: 1.43775 cumulative IPC: 2.28376 (Simulation time: 0 hr 4 min 44 sec) 
Heartbeat CPU  2 instructions:   51000000 cycles:   19298118 heartbeat IPC: 2.68592 cumulative IPC: 0.05182 (Simulation time: 0 hr 4 min 45 sec) 
Heartbeat CPU  1 instructions:   41000000 cycles:   19527046 heartbeat IPC: 3.00491 cumulative IPC: 2.09965 (Simulation time: 0 hr 4 min 48 sec) 
Heartbeat CPU  3 instructions:   53000000 cycles:   19538011 heartbeat IPC: 3.06844 cumulative IPC: 0.15355 (Simulation time: 0 hr 4 min 48 sec) 
Heartbeat CPU  2 instructions:   52000000 cycles:   19624039 heartbeat IPC: 3.06823 cumulative IPC: 0.10192 (Simulation time: 0 hr 4 min 50 sec) 
Heartbeat CPU  1 instructions:   42000001 cycles:   19886635 heartbeat IPC: 2.78096 cumulative IPC: 2.11197 (Simulation time: 0 hr 4 min 54 sec) 
Heartbeat CPU  3 instructions:   54000001 cycles:   19901507 heartbeat IPC: 2.75106 cumulative IPC: 0.20099 (Simulation time: 0 hr 4 min 54 sec) 
Heartbeat CPU  0 instructions:   45000003 cycles:   19948185 heartbeat IPC: 1.46689 cumulative IPC: 2.25584 (Simulation time: 0 hr 4 min 54 sec) 
Heartbeat CPU  2 instructions:   53000002 cycles:   19949326 heartbeat IPC: 3.07421 cumulative IPC: 0.15038 (Simulation time: 0 hr 4 min 54 sec) 
Heartbeat CPU  3 instructions:   55000000 cycles:   20328498 heartbeat IPC: 2.34197 cumulative IPC: 0.24596 (Simulation time: 0 hr 4 min 59 sec) 
Heartbeat CPU  2 instructions:   54000000 cycles:   20364918 heartbeat IPC: 2.40620 cumulative IPC: 0.19642 (Simulation time: 0 hr 5 min 0 sec) 
Heartbeat CPU  0 instructions:   46000001 cycles:   20450630 heartbeat IPC: 1.99026 cumulative IPC: 2.24932 (Simulation time: 0 hr 5 min 1 sec) 
Heartbeat CPU  1 instructions:   43000002 cycles:   20831714 heartbeat IPC: 1.05811 cumulative IPC: 2.06416 (Simulation time: 0 hr 5 min 5 sec) 
Heartbeat CPU  0 instructions:   47000001 cycles:   20831947 heartbeat IPC: 2.62249 cumulative IPC: 2.25615 (Simulation time: 0 hr 5 min 5 sec) 
Heartbeat CPU  2 instructions:   55000003 cycles:   20946359 heartbeat IPC: 1.71987 cumulative IPC: 0.23871 (Simulation time: 0 hr 5 min 6 sec) 
Heartbeat CPU  3 instructions:   56000000 cycles:   21017741 heartbeat IPC: 1.45087 cumulative IPC: 0.28547 (Simulation time: 0 hr 5 min 7 sec) 
Heartbeat CPU  0 instructions:   48000000 cycles:   21245086 heartbeat IPC: 2.42049 cumulative IPC: 2.25935 (Simulation time: 0 hr 5 min 10 sec) 
Heartbeat CPU  3 instructions:   57000000 cycles:   21427905 heartbeat IPC: 2.43805 cumulative IPC: 0.32668 (Simulation time: 0 hr 5 min 12 sec) 
Heartbeat CPU  1 instructions:   44000000 cycles:   21472917 heartbeat IPC: 1.55957 cumulative IPC: 2.04909 (Simulation time: 0 hr 5 min 13 sec) 
Heartbeat CPU  2 instructions:   56000000 cycles:   21490191 heartbeat IPC: 1.83880 cumulative IPC: 0.27920 (Simulation time: 0 hr 5 min 13 sec) 
Heartbeat CPU  0 instructions:   49000003 cycles:   21571419 heartbeat IPC: 3.06436 cumulative IPC: 2.27152 (Simulation time: 0 hr 5 min 14 sec) 
Heartbeat CPU  2 instructions:   57000001 cycles:   21869219 heartbeat IPC: 2.63833 cumulative IPC: 0.32008 (Simulation time: 0 hr 5 min 18 sec) 
Heartbeat CPU  3 instructions:   58000000 cycles:   21980678 heartbeat IPC: 1.80906 cumulative IPC: 0.36396 (Simulation time: 0 hr 5 min 19 sec) 
Heartbeat CPU  0 instructions:   50000000 cycles:   22042370 heartbeat IPC: 2.12336 cumulative IPC: 2.26836 (Simulation time: 0 hr 5 min 20 sec) 
Heartbeat CPU  1 instructions:   45000003 cycles:   22269925 heartbeat IPC: 1.25470 cumulative IPC: 2.02066 (Simulation time: 0 hr 5 min 22 sec) 
Heartbeat CPU  2 instructions:   58000001 cycles:   22440776 heartbeat IPC: 1.74961 cumulative IPC: 0.35649 (Simulation time: 0 hr 5 min 24 sec) 
Heartbeat CPU  0 instructions:   51000000 cycles:   22469761 heartbeat IPC: 2.33978 cumulative IPC: 0.04450 (Simulation time: 0 hr 5 min 24 sec) 
Heartbeat CPU  3 instructions:   59000000 cycles:   22610545 heartbeat IPC: 1.58764 cumulative IPC: 0.39804 (Simulation time: 0 hr 5 min 26 sec) 
Heartbeat CPU  0 instructions:   52000000 cycles:   22793633 heartbeat IPC: 3.08764 cumulative IPC: 0.08774 (Simulation time: 0 hr 5 min 28 sec) 
Heartbeat CPU  1 instructions:   46000001 cycles:   22924152 heartbeat IPC: 1.52852 cumulative IPC: 2.00662 (Simulation time: 0 hr 5 min 30 sec) 
Heartbeat CPU  2 instructions:   59000002 cycles:   23069478 heartbeat IPC: 1.59058 cumulative IPC: 0.39013 (Simulation time: 0 hr 5 min 32 sec) 
Heartbeat CPU  0 instructions:   53000002 cycles:   23116883 heartbeat IPC: 3.09359 cumulative IPC: 0.12978 (Simulation time: 0 hr 5 min 33 sec) 
Heartbeat CPU  3 instructions:   60000000 cycles:   23118170 heartbeat IPC: 1.96996 cumulative IPC: 0.43256 (Simulation time: 0 hr 5 min 33 sec) 
Heartbeat CPU  1 instructions:   47000003 cycles:   23252832 heartbeat IPC: 3.04248 cumulative IPC: 2.02126 (Simulation time: 0 hr 5 min 35 sec) 
Heartbeat CPU  0 instructions:   54000000 cycles:   23537975 heartbeat IPC: 2.37477 cumulative IPC: 0.16994 (Simulation time: 0 hr 5 min 39 sec) 
Heartbeat CPU  1 instructions:   48000000 cycles:   23582107 heartbeat IPC: 3.03697 cumulative IPC: 2.03544 (Simulation time: 0 hr 5 min 39 sec) 
Heartbeat CPU  2 instructions:   60000000 cycles:   23589674 heartbeat IPC: 1.92235 cumulative IPC: 0.42391 (Simulation time: 0 hr 5 min 39 sec) 
Heartbeat CPU  3 instructions:   61000002 cycles:   23645882 heartbeat IPC: 1.89498 cumulative IPC: 0.46520 (Simulation time: 0 hr 5 min 40 sec) 
Heartbeat CPU  0 instructions:   55000001 cycles:   23897721 heartbeat IPC: 2.77974 cumulative IPC: 0.20923 (Simulation time: 0 hr 5 min 44 sec) 
Heartbeat CPU  1 instructions:   49000000 cycles:   23906485 heartbeat IPC: 3.08282 cumulative IPC: 2.04965 (Simulation time: 0 hr 5 min 44 sec) 
Heartbeat CPU  2 instructions:   61000002 cycles:   24133444 heartbeat IPC: 1.83902 cumulative IPC: 0.45580 (Simulation time: 0 hr 5 min 46 sec) 
Heartbeat CPU  1 instructions:   50000002 cycles:   24230150 heartbeat IPC: 3.08962 cumulative IPC: 2.06354 (Simulation time: 0 hr 5 min 48 sec) 

Warmup complete CPU  0 instructions:   55747179 cycles:   24230149 (Simulation time: 0 hr 5 min 48 sec) 
Warmup complete CPU  1 instructions:   50000002 cycles:   24230150 (Simulation time: 0 hr 5 min 48 sec) 
Warmup complete CPU  2 instructions:   61191909 cycles:   24230150 (Simulation time: 0 hr 5 min 48 sec) 
Warmup complete CPU  3 instructions:   61858251 cycles:   24230150 (Simulation time: 0 hr 5 min 48 sec) 

Heartbeat CPU  3 instructions:   62000000 cycles:   24497041 heartbeat IPC: 1.17487 cumulative IPC: 0.53111 (Simulation time: 0 hr 5 min 49 sec) 
Heartbeat CPU  0 instructions:   56000000 cycles:   24958320 heartbeat IPC: 0.94286 cumulative IPC: 0.34720 (Simulation time: 0 hr 5 min 50 sec) 
Heartbeat CPU  2 instructions:   62000002 cycles:   26635439 heartbeat IPC: 0.39968 cumulative IPC: 0.33597 (Simulation time: 0 hr 5 min 54 sec) 
Heartbeat CPU  0 instructions:   57000000 cycles:   27673104 heartbeat IPC: 0.36835 cumulative IPC: 0.36388 (Simulation time: 0 hr 5 min 57 sec) 
Heartbeat CPU  1 instructions:   51000003 cycles:   28059254 heartbeat IPC: 0.26116 cumulative IPC: 0.26116 (Simulation time: 0 hr 5 min 58 sec) 
Heartbeat CPU  3 instructions:   63000000 cycles:   28326185 heartbeat IPC: 0.26115 cumulative IPC: 0.27874 (Simulation time: 0 hr 5 min 59 sec) 
Heartbeat CPU  1 instructions:   52000000 cycles:   29730352 heartbeat IPC: 0.59841 cumulative IPC: 0.36362 (Simulation time: 0 hr 6 min 1 sec) 
Heartbeat CPU  0 instructions:   58000002 cycles:   30520303 heartbeat IPC: 0.35122 cumulative IPC: 0.35815 (Simulation time: 0 hr 6 min 4 sec) 
Heartbeat CPU  2 instructions:   63000000 cycles:   30682377 heartbeat IPC: 0.24710 cumulative IPC: 0.28023 (Simulation time: 0 hr 6 min 4 sec) 
Heartbeat CPU  1 instructions:   53000003 cycles:   32206437 heartbeat IPC: 0.40386 cumulative IPC: 0.37611 (Simulation time: 0 hr 6 min 8 sec) 
Heartbeat CPU  0 instructions:   59000002 cycles:   32644609 heartbeat IPC: 0.47074 cumulative IPC: 0.38658 (Simulation time: 0 hr 6 min 9 sec) 
Heartbeat CPU  1 instructions:   54000003 cycles:   35631854 heartbeat IPC: 0.29194 cumulative IPC: 0.35082 (Simulation time: 0 hr 6 min 15 sec) 
Heartbeat CPU  2 instructions:   64000000 cycles:   35712191 heartbeat IPC: 0.19881 cumulative IPC: 0.24456 (Simulation time: 0 hr 6 min 15 sec) 
Heartbeat CPU  3 instructions:   64000000 cycles:   35748661 heartbeat IPC: 0.13473 cumulative IPC: 0.18594 (Simulation time: 0 hr 6 min 15 sec) 
Heartbeat CPU  0 instructions:   60000000 cycles:   37775592 heartbeat IPC: 0.19489 cumulative IPC: 0.31397 (Simulation time: 0 hr 6 min 19 sec) 
Heartbeat CPU  1 instructions:   55000003 cycles:   38491321 heartbeat IPC: 0.34972 cumulative IPC: 0.35060 (Simulation time: 0 hr 6 min 20 sec) 
Heartbeat CPU  3 instructions:   65000000 cycles:   40859295 heartbeat IPC: 0.19567 cumulative IPC: 0.18893 (Simulation time: 0 hr 6 min 25 sec) 
Heartbeat CPU  2 instructions:   65000002 cycles:   41500546 heartbeat IPC: 0.17276 cumulative IPC: 0.22050 (Simulation time: 0 hr 6 min 26 sec) 
Heartbeat CPU  0 instructions:   61000003 cycles:   42541026 heartbeat IPC: 0.20985 cumulative IPC: 0.28687 (Simulation time: 0 hr 6 min 28 sec) 
Heartbeat CPU  1 instructions:   56000000 cycles:   42578757 heartbeat IPC: 0.24465 cumulative IPC: 0.32700 (Simulation time: 0 hr 6 min 29 sec) 
Heartbeat CPU  1 instructions:   57000001 cycles:   45072490 heartbeat IPC: 0.40101 cumulative IPC: 0.33585 (Simulation time: 0 hr 6 min 34 sec) 
Heartbeat CPU  3 instructions:   66000000 cycles:   45873998 heartbeat IPC: 0.19941 cumulative IPC: 0.19136 (Simulation time: 0 hr 6 min 36 sec) 
Heartbeat CPU  0 instructions:   62000002 cycles:   46331328 heartbeat IPC: 0.26383 cumulative IPC: 0.28292 (Simulation time: 0 hr 6 min 37 sec) 
Heartbeat CPU  2 instructions:   66000000 cycles:   47071035 heartbeat IPC: 0.17952 cumulative IPC: 0.21050 (Simulation time: 0 hr 6 min 39 sec) 
Heartbeat CPU  1 instructions:   58000003 cycles:   48188604 heartbeat IPC: 0.32091 cumulative IPC: 0.33391 (Simulation time: 0 hr 6 min 43 sec) 
Heartbeat CPU  0 instructions:   63000000 cycles:   49629988 heartbeat IPC: 0.30315 cumulative IPC: 0.28555 (Simulation time: 0 hr 6 min 47 sec) 
Heartbeat CPU  3 instructions:   67000000 cycles:   51411627 heartbeat IPC: 0.18058 cumulative IPC: 0.18916 (Simulation time: 0 hr 6 min 50 sec) 
Heartbeat CPU  1 instructions:   59000001 cycles:   52401980 heartbeat IPC: 0.23734 cumulative IPC: 0.31947 (Simulation time: 0 hr 6 min 52 sec) 
Heartbeat CPU  2 instructions:   67000002 cycles:   53070309 heartbeat IPC: 0.16669 cumulative IPC: 0.20139 (Simulation time: 0 hr 6 min 54 sec) 
Heartbeat CPU  0 instructions:   64000000 cycles:   53467604 heartbeat IPC: 0.26058 cumulative IPC: 0.28227 (Simulation time: 0 hr 6 min 54 sec) 
Heartbeat CPU  1 instructions:   60000000 cycles:   57623016 heartbeat IPC: 0.19153 cumulative IPC: 0.29947 (Simulation time: 0 hr 7 min 1 sec) 
Heartbeat CPU  3 instructions:   68000000 cycles:   58261844 heartbeat IPC: 0.14598 cumulative IPC: 0.18047 (Simulation time: 0 hr 7 min 2 sec) 
Heartbeat CPU  2 instructions:   68000000 cycles:   58381880 heartbeat IPC: 0.18827 cumulative IPC: 0.19935 (Simulation time: 0 hr 7 min 2 sec) 
Heartbeat CPU  0 instructions:   65000000 cycles:   59395117 heartbeat IPC: 0.16870 cumulative IPC: 0.26313 (Simulation time: 0 hr 7 min 4 sec) 
Heartbeat CPU  1 instructions:   61000003 cycles:   62572911 heartbeat IPC: 0.20203 cumulative IPC: 0.28689 (Simulation time: 0 hr 7 min 10 sec) 
Heartbeat CPU  0 instructions:   66000002 cycles:   63623298 heartbeat IPC: 0.23651 cumulative IPC: 0.26027 (Simulation time: 0 hr 7 min 12 sec) 
Heartbeat CPU  3 instructions:   69000000 cycles:   64077122 heartbeat IPC: 0.17196 cumulative IPC: 0.17923 (Simulation time: 0 hr 7 min 13 sec) 
Heartbeat CPU  2 instructions:   69000000 cycles:   64427214 heartbeat IPC: 0.16542 cumulative IPC: 0.19425 (Simulation time: 0 hr 7 min 14 sec) 
Heartbeat CPU  1 instructions:   62000003 cycles:   66553582 heartbeat IPC: 0.25121 cumulative IPC: 0.28353 (Simulation time: 0 hr 7 min 19 sec) 
Heartbeat CPU  0 instructions:   67000001 cycles:   69032052 heartbeat IPC: 0.18489 cumulative IPC: 0.25117 (Simulation time: 0 hr 7 min 23 sec) 
Heartbeat CPU  3 instructions:   70000001 cycles:   69175094 heartbeat IPC: 0.19616 cumulative IPC: 0.18115 (Simulation time: 0 hr 7 min 23 sec) 
Heartbeat CPU  1 instructions:   63000002 cycles:   70140920 heartbeat IPC: 0.27876 cumulative IPC: 0.28316 (Simulation time: 0 hr 7 min 25 sec) 
Heartbeat CPU  2 instructions:   70000000 cycles:   72426963 heartbeat IPC: 0.12500 cumulative IPC: 0.18275 (Simulation time: 0 hr 7 min 29 sec) 
Heartbeat CPU  0 instructions:   68000000 cycles:   73495290 heartbeat IPC: 0.22405 cumulative IPC: 0.24871 (Simulation time: 0 hr 7 min 30 sec) 
Heartbeat CPU  3 instructions:   71000003 cycles:   75480457 heartbeat IPC: 0.15860 cumulative IPC: 0.17837 (Simulation time: 0 hr 7 min 34 sec) 
Heartbeat CPU  2 instructions:   71000003 cycles:   77676988 heartbeat IPC: 0.19048 cumulative IPC: 0.18351 (Simulation time: 0 hr 7 min 38 sec) 
Heartbeat CPU  0 instructions:   69000002 cycles:   77721686 heartbeat IPC: 0.23661 cumulative IPC: 0.24776 (Simulation time: 0 hr 7 min 38 sec) 
Heartbeat CPU  1 instructions:   64000000 cycles:   78189777 heartbeat IPC: 0.12424 cumulative IPC: 0.25945 (Simulation time: 0 hr 7 min 39 sec) 
Heartbeat CPU  3 instructions:   72000000 cycles:   82204062 heartbeat IPC: 0.14873 cumulative IPC: 0.17494 (Simulation time: 0 hr 7 min 45 sec) 
Heartbeat CPU  2 instructions:   72000000 cycles:   83075215 heartbeat IPC: 0.18525 cumulative IPC: 0.18367 (Simulation time: 0 hr 7 min 47 sec) 
Heartbeat CPU  0 instructions:   70000002 cycles:   83624191 heartbeat IPC: 0.16942 cumulative IPC: 0.23997 (Simulation time: 0 hr 7 min 47 sec) 
Heartbeat CPU  1 instructions:   65000002 cycles:   85032855 heartbeat IPC: 0.14613 cumulative IPC: 0.24670 (Simulation time: 0 hr 7 min 50 sec) 
Heartbeat CPU  2 instructions:   73000000 cycles:   87888868 heartbeat IPC: 0.20774 cumulative IPC: 0.18549 (Simulation time: 0 hr 7 min 54 sec) 
Heartbeat CPU  3 instructions:   73000000 cycles:   88411259 heartbeat IPC: 0.16110 cumulative IPC: 0.17360 (Simulation time: 0 hr 7 min 55 sec) 
Heartbeat CPU  0 instructions:   71000003 cycles:   90354139 heartbeat IPC: 0.14859 cumulative IPC: 0.23067 (Simulation time: 0 hr 7 min 58 sec) 
Heartbeat CPU  1 instructions:   66000003 cycles:   90787248 heartbeat IPC: 0.17378 cumulative IPC: 0.24040 (Simulation time: 0 hr 7 min 59 sec) 
Heartbeat CPU  2 instructions:   74000003 cycles:   92199333 heartbeat IPC: 0.23199 cumulative IPC: 0.18844 (Simulation time: 0 hr 8 min 1 sec) 
Heartbeat CPU  3 instructions:   74000001 cycles:   94938068 heartbeat IPC: 0.15321 cumulative IPC: 0.17172 (Simulation time: 0 hr 8 min 6 sec) 
Heartbeat CPU  2 instructions:   75000002 cycles:   96577149 heartbeat IPC: 0.22842 cumulative IPC: 0.19086 (Simulation time: 0 hr 8 min 9 sec) 
Heartbeat CPU  0 instructions:   72000000 cycles:   96748081 heartbeat IPC: 0.15640 cumulative IPC: 0.22412 (Simulation time: 0 hr 8 min 9 sec) 
Heartbeat CPU  1 instructions:   67000003 cycles:   96768356 heartbeat IPC: 0.16719 cumulative IPC: 0.23436 (Simulation time: 0 hr 8 min 9 sec) 
Heartbeat CPU  3 instructions:   75000002 cycles:   99829362 heartbeat IPC: 0.20445 cumulative IPC: 0.17383 (Simulation time: 0 hr 8 min 16 sec) 
Heartbeat CPU  2 instructions:   76000000 cycles:  100148819 heartbeat IPC: 0.27998 cumulative IPC: 0.19505 (Simulation time: 0 hr 8 min 16 sec) 
Heartbeat CPU  0 instructions:   73000001 cycles:  101617211 heartbeat IPC: 0.20538 cumulative IPC: 0.22294 (Simulation time: 0 hr 8 min 20 sec) 
Heartbeat CPU  1 instructions:   68000000 cycles:  101889238 heartbeat IPC: 0.19528 cumulative IPC: 0.23178 (Simulation time: 0 hr 8 min 20 sec) 
Heartbeat CPU  3 instructions:   76000000 cycles:  102575173 heartbeat IPC: 0.36419 cumulative IPC: 0.18051 (Simulation time: 0 hr 8 min 21 sec) 
Heartbeat CPU  2 instructions:   77000000 cycles:  104433152 heartbeat IPC: 0.23341 cumulative IPC: 0.19710 (Simulation time: 0 hr 8 min 25 sec) 
Heartbeat CPU  3 instructions:   77000001 cycles:  106234073 heartbeat IPC: 0.27331 cumulative IPC: 0.18465 (Simulation time: 0 hr 8 min 28 sec) 
Heartbeat CPU  0 instructions:   74000001 cycles:  106814282 heartbeat IPC: 0.19242 cumulative IPC: 0.22102 (Simulation time: 0 hr 8 min 29 sec) 
Heartbeat CPU  1 instructions:   69000000 cycles:  108779756 heartbeat IPC: 0.14513 cumulative IPC: 0.22472 (Simulation time: 0 hr 8 min 33 sec) 
Heartbeat CPU  2 instructions:   78000002 cycles:  108987642 heartbeat IPC: 0.21956 cumulative IPC: 0.19831 (Simulation time: 0 hr 8 min 33 sec) 
Heartbeat CPU  0 instructions:   75000001 cycles:  110426978 heartbeat IPC: 0.27680 cumulative IPC: 0.22336 (Simulation time: 0 hr 8 min 37 sec) 
Heartbeat CPU  2 instructions:   79000003 cycles:  110442891 heartbeat IPC: 0.68717 cumulative IPC: 0.20656 (Simulation time: 0 hr 8 min 37 sec) 
Heartbeat CPU  3 instructions:   78000003 cycles:  110977165 heartbeat IPC: 0.21083 cumulative IPC: 0.18608 (Simulation time: 0 hr 8 min 39 sec) 
Heartbeat CPU  2 instructions:   80000000 cycles:  111101248 heartbeat IPC: 1.51893 cumulative IPC: 0.21651 (Simulation time: 0 hr 8 min 40 sec) 
Heartbeat CPU  3 instructions:   79000002 cycles:  113494141 heartbeat IPC: 0.39730 cumulative IPC: 0.19203 (Simulation time: 0 hr 8 min 46 sec) 
Heartbeat CPU  2 instructions:   81000002 cycles:  113819453 heartbeat IPC: 0.36789 cumulative IPC: 0.22110 (Simulation time: 0 hr 8 min 48 sec) 
Heartbeat CPU  0 instructions:   76000000 cycles:  114043242 heartbeat IPC: 0.27653 cumulative IPC: 0.22550 (Simulation time: 0 hr 8 min 49 sec) 
Heartbeat CPU  3 instructions:   80000000 cycles:  114151577 heartbeat IPC: 1.52106 cumulative IPC: 0.20175 (Simulation time: 0 hr 8 min 49 sec) 
Heartbeat CPU  1 instructions:   70000000 cycles:  115394350 heartbeat IPC: 0.15118 cumulative IPC: 0.21938 (Simulation time: 0 hr 8 min 52 sec) 
Heartbeat CPU  2 instructions:   82000001 cycles:  116961796 heartbeat IPC: 0.31823 cumulative IPC: 0.22439 (Simulation time: 0 hr 8 min 56 sec) 
Heartbeat CPU  3 instructions:   81000002 cycles:  117225176 heartbeat IPC: 0.32535 cumulative IPC: 0.20584 (Simulation time: 0 hr 8 min 57 sec) 
Heartbeat CPU  0 instructions:   77000001 cycles:  118286586 heartbeat IPC: 0.23566 cumulative IPC: 0.22596 (Simulation time: 0 hr 8 min 59 sec) 
Heartbeat CPU  2 instructions:   83000002 cycles:  119666939 heartbeat IPC: 0.36967 cumulative IPC: 0.22851 (Simulation time: 0 hr 9 min 2 sec) 
Heartbeat CPU  3 instructions:   82000000 cycles:  119897914 heartbeat IPC: 0.37415 cumulative IPC: 0.21054 (Simulation time: 0 hr 9 min 3 sec) 
Heartbeat CPU  1 instructions:   71000002 cycles:  122164347 heartbeat IPC: 0.14771 cumulative IPC: 0.21443 (Simulation time: 0 hr 9 min 8 sec) 
Heartbeat CPU  2 instructions:   84000000 cycles:  122335247 heartbeat IPC: 0.37477 cumulative IPC: 0.23249 (Simulation time: 0 hr 9 min 9 sec) 
Heartbeat CPU  3 instructions:   83000002 cycles:  122558714 heartbeat IPC: 0.37583 cumulative IPC: 0.21501 (Simulation time: 0 hr 9 min 9 sec) 
Heartbeat CPU  0 instructions:   78000000 cycles:  122573432 heartbeat IPC: 0.23327 cumulative IPC: 0.22628 (Simulation time: 0 hr 9 min 9 sec) 
Heartbeat CPU  0 instructions:   79000002 cycles:  124133131 heartbeat IPC: 0.64115 cumulative IPC: 0.23275 (Simulation time: 0 hr 9 min 13 sec) 
Heartbeat CPU  0 instructions:   80000000 cycles:  124834493 heartbeat IPC: 1.42579 cumulative IPC: 0.24107 (Simulation time: 0 hr 9 min 16 sec) 
Heartbeat CPU  2 instructions:   85000000 cycles:  125358160 heartbeat IPC: 0.33081 cumulative IPC: 0.23543 (Simulation time: 0 hr 9 min 18 sec) 
Heartbeat CPU  3 instructions:   84000000 cycles:  125695834 heartbeat IPC: 0.31876 cumulative IPC: 0.21822 (Simulation time: 0 hr 9 min 18 sec) 
Heartbeat CPU  2 instructions:   86000000 cycles:  128013177 heartbeat IPC: 0.37665 cumulative IPC: 0.23904 (Simulation time: 0 hr 9 min 25 sec) 
Heartbeat CPU  0 instructions:   81000002 cycles:  128188191 heartbeat IPC: 0.29818 cumulative IPC: 0.24291 (Simulation time: 0 hr 9 min 25 sec) 
Heartbeat CPU  3 instructions:   85000000 cycles:  128433923 heartbeat IPC: 0.36522 cumulative IPC: 0.22208 (Simulation time: 0 hr 9 min 26 sec) 
Heartbeat CPU  1 instructions:   72000000 cycles:  129337061 heartbeat IPC: 0.13942 cumulative IPC: 0.20931 (Simulation time: 0 hr 9 min 28 sec) 
Heartbeat CPU  2 instructions:   87000002 cycles:  130664376 heartbeat IPC: 0.37719 cumulative IPC: 0.24248 (Simulation time: 0 hr 9 min 31 sec) 
Heartbeat CPU  0 instructions:   82000000 cycles:  131055312 heartbeat IPC: 0.34878 cumulative IPC: 0.24576 (Simulation time: 0 hr 9 min 32 sec) 
Heartbeat CPU  3 instructions:   86000002 cycles:  131196943 heartbeat IPC: 0.36192 cumulative IPC: 0.22569 (Simulation time: 0 hr 9 min 33 sec) 
Heartbeat CPU  2 instructions:   88000000 cycles:  133326230 heartbeat IPC: 0.37568 cumulative IPC: 0.24573 (Simulation time: 0 hr 9 min 38 sec) 
Heartbeat CPU  3 instructions:   87000002 cycles:  133931936 heartbeat IPC: 0.36563 cumulative IPC: 0.22918 (Simulation time: 0 hr 9 min 39 sec) 
Heartbeat CPU  0 instructions:   83000002 cycles:  134656849 heartbeat IPC: 0.27766 cumulative IPC: 0.24680 (Simulation time: 0 hr 9 min 41 sec) 
Heartbeat CPU  1 instructions:   73000001 cycles:  135001343 heartbeat IPC: 0.17655 cumulative IPC: 0.20764 (Simulation time: 0 hr 9 min 42 sec) 
Heartbeat CPU  2 instructions:   89000002 cycles:  136486799 heartbeat IPC: 0.31640 cumulative IPC: 0.24772 (Simulation time: 0 hr 9 min 46 sec) 
Heartbeat CPU  3 instructions:   88000000 cycles:  136638017 heartbeat IPC: 0.36954 cumulative IPC: 0.23256 (Simulation time: 0 hr 9 min 46 sec) 
Heartbeat CPU  0 instructions:   84000000 cycles:  138218774 heartbeat IPC: 0.28075 cumulative IPC: 0.24786 (Simulation time: 0 hr 9 min 50 sec) 
Heartbeat CPU  2 instructions:   90000000 cycles:  139084998 heartbeat IPC: 0.38488 cumulative IPC: 0.25082 (Simulation time: 0 hr 9 min 53 sec) 
Heartbeat CPU  3 instructions:   89000001 cycles:  139660325 heartbeat IPC: 0.33087 cumulative IPC: 0.23514 (Simulation time: 0 hr 9 min 54 sec) 
Heartbeat CPU  1 instructions:   74000002 cycles:  140085984 heartbeat IPC: 0.19667 cumulative IPC: 0.20715 (Simulation time: 0 hr 9 min 55 sec) 
Heartbeat CPU  2 instructions:   91000003 cycles:  141737712 heartbeat IPC: 0.37697 cumulative IPC: 0.25367 (Simulation time: 0 hr 9 min 59 sec) 
Heartbeat CPU  3 instructions:   90000002 cycles:  142267857 heartbeat IPC: 0.38350 cumulative IPC: 0.23841 (Simulation time: 0 hr 10 min 0 sec) 
Heartbeat CPU  0 instructions:   85000000 cycles:  142314372 heartbeat IPC: 0.24416 cumulative IPC: 0.24773 (Simulation time: 0 hr 10 min 0 sec) 
Heartbeat CPU  1 instructions:   75000003 cycles:  143607247 heartbeat IPC: 0.28399 cumulative IPC: 0.20942 (Simulation time: 0 hr 10 min 4 sec) 
Heartbeat CPU  2 instructions:   92000000 cycles:  144539057 heartbeat IPC: 0.35697 cumulative IPC: 0.25607 (Simulation time: 0 hr 10 min 7 sec) 
Heartbeat CPU  3 instructions:   91000003 cycles:  144955978 heartbeat IPC: 0.37201 cumulative IPC: 0.24139 (Simulation time: 0 hr 10 min 8 sec) 
Heartbeat CPU  0 instructions:   86000000 cycles:  145133215 heartbeat IPC: 0.35476 cumulative IPC: 0.25022 (Simulation time: 0 hr 10 min 9 sec) 
Heartbeat CPU  2 instructions:   93000001 cycles:  147202223 heartbeat IPC: 0.37549 cumulative IPC: 0.25866 (Simulation time: 0 hr 10 min 15 sec) 
Heartbeat CPU  1 instructions:   76000000 cycles:  147487300 heartbeat IPC: 0.25773 cumulative IPC: 0.21094 (Simulation time: 0 hr 10 min 15 sec) 
Heartbeat CPU  0 instructions:   87000003 cycles:  147817467 heartbeat IPC: 0.37254 cumulative IPC: 0.25288 (Simulation time: 0 hr 10 min 16 sec) 
Heartbeat CPU  3 instructions:   92000000 cycles:  147921111 heartbeat IPC: 0.33725 cumulative IPC: 0.24369 (Simulation time: 0 hr 10 min 16 sec) 
Heartbeat CPU  2 instructions:   94000003 cycles:  149898694 heartbeat IPC: 0.37086 cumulative IPC: 0.26107 (Simulation time: 0 hr 10 min 22 sec) 
Heartbeat CPU  3 instructions:   93000001 cycles:  150505330 heartbeat IPC: 0.38696 cumulative IPC: 0.24662 (Simulation time: 0 hr 10 min 23 sec) 
Heartbeat CPU  0 instructions:   88000000 cycles:  151067900 heartbeat IPC: 0.30765 cumulative IPC: 0.25428 (Simulation time: 0 hr 10 min 25 sec) 
Heartbeat CPU  1 instructions:   77000002 cycles:  152132812 heartbeat IPC: 0.21526 cumulative IPC: 0.21110 (Simulation time: 0 hr 10 min 27 sec) 
Heartbeat CPU  2 instructions:   95000003 cycles:  152395822 heartbeat IPC: 0.40046 cumulative IPC: 0.26378 (Simulation time: 0 hr 10 min 28 sec) 
Heartbeat CPU  3 instructions:   94000003 cycles:  153289947 heartbeat IPC: 0.35912 cumulative IPC: 0.24905 (Simulation time: 0 hr 10 min 30 sec) 
Heartbeat CPU  0 instructions:   89000000 cycles:  154342228 heartbeat IPC: 0.30541 cumulative IPC: 0.25557 (Simulation time: 0 hr 10 min 34 sec) 
Heartbeat CPU  2 instructions:   96000000 cycles:  154595542 heartbeat IPC: 0.45460 cumulative IPC: 0.26700 (Simulation time: 0 hr 10 min 34 sec) 
Heartbeat CPU  3 instructions:   95000000 cycles:  156046426 heartbeat IPC: 0.36278 cumulative IPC: 0.25142 (Simulation time: 0 hr 10 min 38 sec) 
Heartbeat CPU  1 instructions:   78000000 cycles:  156817381 heartbeat IPC: 0.21347 cumulative IPC: 0.21118 (Simulation time: 0 hr 10 min 40 sec) 
Heartbeat CPU  0 instructions:   90000002 cycles:  157131779 heartbeat IPC: 0.35848 cumulative IPC: 0.25773 (Simulation time: 0 hr 10 min 41 sec) 
Heartbeat CPU  2 instructions:   97000001 cycles:  157183698 heartbeat IPC: 0.38638 cumulative IPC: 0.26933 (Simulation time: 0 hr 10 min 41 sec) 
Heartbeat CPU  3 instructions:   96000000 cycles:  158800219 heartbeat IPC: 0.36314 cumulative IPC: 0.25371 (Simulation time: 0 hr 10 min 47 sec) 
Heartbeat CPU  1 instructions:   79000003 cycles:  158801073 heartbeat IPC: 0.50411 cumulative IPC: 0.21550 (Simulation time: 0 hr 10 min 47 sec) 
Heartbeat CPU  0 instructions:   91000003 cycles:  159951345 heartbeat IPC: 0.35466 cumulative IPC: 0.25974 (Simulation time: 0 hr 10 min 52 sec) 
Heartbeat CPU  2 instructions:   98000001 cycles:  159958501 heartbeat IPC: 0.36039 cumulative IPC: 0.27119 (Simulation time: 0 hr 10 min 52 sec) 
Heartbeat CPU  1 instructions:   80000000 cycles:  161241928 heartbeat IPC: 0.40969 cumulative IPC: 0.21896 (Simulation time: 0 hr 10 min 56 sec) 
Heartbeat CPU  3 instructions:   97000003 cycles:  161783088 heartbeat IPC: 0.33525 cumulative IPC: 0.25548 (Simulation time: 0 hr 10 min 57 sec) 
Heartbeat CPU  2 instructions:   99000000 cycles:  163415671 heartbeat IPC: 0.28925 cumulative IPC: 0.27164 (Simulation time: 0 hr 11 min 2 sec) 
Heartbeat CPU  0 instructions:   92000000 cycles:  163680123 heartbeat IPC: 0.26818 cumulative IPC: 0.25997 (Simulation time: 0 hr 11 min 3 sec) 
Heartbeat CPU  1 instructions:   81000002 cycles:  164386401 heartbeat IPC: 0.31802 cumulative IPC: 0.22118 (Simulation time: 0 hr 11 min 5 sec) 
Heartbeat CPU  3 instructions:   98000003 cycles:  164536335 heartbeat IPC: 0.36321 cumulative IPC: 0.25759 (Simulation time: 0 hr 11 min 5 sec) 
*** Reached end of trace for Core: 2 Repeating trace: /data3/CASSANDRA/traces/cassandra_phase4_core2.trace.xz
Heartbeat CPU  2 instructions:  100000000 cycles:  166072251 heartbeat IPC: 0.37642 cumulative IPC: 0.27360 (Simulation time: 0 hr 11 min 10 sec) 
Heartbeat CPU  0 instructions:   93000003 cycles:  166434123 heartbeat IPC: 0.36311 cumulative IPC: 0.26197 (Simulation time: 0 hr 11 min 11 sec) 
Heartbeat CPU  1 instructions:   82000002 cycles:  167074609 heartbeat IPC: 0.37200 cumulative IPC: 0.22402 (Simulation time: 0 hr 11 min 13 sec) 
Heartbeat CPU  3 instructions:   99000000 cycles:  167377033 heartbeat IPC: 0.35203 cumulative IPC: 0.25947 (Simulation time: 0 hr 11 min 14 sec) 
Heartbeat CPU  2 instructions:  101000001 cycles:  168616905 heartbeat IPC: 0.39298 cumulative IPC: 0.27570 (Simulation time: 0 hr 11 min 18 sec) 
Heartbeat CPU  0 instructions:   94000003 cycles:  169604819 heartbeat IPC: 0.31539 cumulative IPC: 0.26313 (Simulation time: 0 hr 11 min 21 sec) 
*** Reached end of trace for Core: 3 Repeating trace: /data3/CASSANDRA/traces/cassandra_phase4_core3.trace.xz
Heartbeat CPU  3 instructions:  100000000 cycles:  169647960 heartbeat IPC: 0.44035 cumulative IPC: 0.26229 (Simulation time: 0 hr 11 min 21 sec) 
Heartbeat CPU  1 instructions:   83000001 cycles:  169967161 heartbeat IPC: 0.34572 cumulative IPC: 0.22644 (Simulation time: 0 hr 11 min 22 sec) 
Heartbeat CPU  2 instructions:  102000003 cycles:  170776754 heartbeat IPC: 0.46300 cumulative IPC: 0.27846 (Simulation time: 0 hr 11 min 24 sec) 
Heartbeat CPU  3 instructions:  101000002 cycles:  172312285 heartbeat IPC: 0.37533 cumulative IPC: 0.26432 (Simulation time: 0 hr 11 min 28 sec) 
Heartbeat CPU  1 instructions:   84000000 cycles:  172797783 heartbeat IPC: 0.35328 cumulative IPC: 0.22885 (Simulation time: 0 hr 11 min 30 sec) 
Heartbeat CPU  0 instructions:   95000001 cycles:  173453749 heartbeat IPC: 0.25981 cumulative IPC: 0.26305 (Simulation time: 0 hr 11 min 32 sec) 
Heartbeat CPU  2 instructions:  103000001 cycles:  174476037 heartbeat IPC: 0.27032 cumulative IPC: 0.27826 (Simulation time: 0 hr 11 min 35 sec) 
Heartbeat CPU  3 instructions:  102000003 cycles:  174510277 heartbeat IPC: 0.45496 cumulative IPC: 0.26711 (Simulation time: 0 hr 11 min 35 sec) 
Heartbeat CPU  0 instructions:   96000000 cycles:  176155531 heartbeat IPC: 0.37013 cumulative IPC: 0.26495 (Simulation time: 0 hr 11 min 39 sec) 
Heartbeat CPU  1 instructions:   85000001 cycles:  176301491 heartbeat IPC: 0.28541 cumulative IPC: 0.23016 (Simulation time: 0 hr 11 min 40 sec) 
Heartbeat CPU  3 instructions:  103000000 cycles:  176748767 heartbeat IPC: 0.44673 cumulative IPC: 0.26975 (Simulation time: 0 hr 11 min 41 sec) 
Heartbeat CPU  2 instructions:  104000000 cycles:  177392879 heartbeat IPC: 0.34284 cumulative IPC: 0.27949 (Simulation time: 0 hr 11 min 43 sec) 
Heartbeat CPU  0 instructions:   97000002 cycles:  178791674 heartbeat IPC: 0.37934 cumulative IPC: 0.26690 (Simulation time: 0 hr 11 min 47 sec) 
Heartbeat CPU  1 instructions:   86000002 cycles:  179309831 heartbeat IPC: 0.33241 cumulative IPC: 0.23214 (Simulation time: 0 hr 11 min 49 sec) 
Heartbeat CPU  3 instructions:  104000000 cycles:  179493726 heartbeat IPC: 0.36430 cumulative IPC: 0.27142 (Simulation time: 0 hr 11 min 49 sec) 
Heartbeat CPU  2 instructions:  105000001 cycles:  179872903 heartbeat IPC: 0.40322 cumulative IPC: 0.28147 (Simulation time: 0 hr 11 min 50 sec) 
Heartbeat CPU  0 instructions:   98000003 cycles:  181374635 heartbeat IPC: 0.38715 cumulative IPC: 0.26888 (Simulation time: 0 hr 11 min 55 sec) 
Heartbeat CPU  1 instructions:   87000001 cycles:  182141459 heartbeat IPC: 0.35315 cumulative IPC: 0.23431 (Simulation time: 0 hr 11 min 57 sec) 
Heartbeat CPU  2 instructions:  106000000 cycles:  182221984 heartbeat IPC: 0.42570 cumulative IPC: 0.28361 (Simulation time: 0 hr 11 min 58 sec) 
Heartbeat CPU  3 instructions:  105000001 cycles:  182689708 heartbeat IPC: 0.31289 cumulative IPC: 0.27226 (Simulation time: 0 hr 11 min 59 sec) 
Heartbeat CPU  0 instructions:   99000000 cycles:  184072580 heartbeat IPC: 0.37065 cumulative IPC: 0.27060 (Simulation time: 0 hr 12 min 3 sec) 
Heartbeat CPU  2 instructions:  107000000 cycles:  184824501 heartbeat IPC: 0.38424 cumulative IPC: 0.28524 (Simulation time: 0 hr 12 min 5 sec) 
Heartbeat CPU  3 instructions:  106000002 cycles:  185047477 heartbeat IPC: 0.42413 cumulative IPC: 0.27448 (Simulation time: 0 hr 12 min 6 sec) 
Heartbeat CPU  1 instructions:   88000000 cycles:  185201558 heartbeat IPC: 0.32679 cumulative IPC: 0.23607 (Simulation time: 0 hr 12 min 7 sec) 
*** Reached end of trace for Core: 0 Repeating trace: /data3/CASSANDRA/traces/cassandra_phase4_core0.trace.xz
Heartbeat CPU  0 instructions:  100000000 cycles:  186872447 heartbeat IPC: 0.35716 cumulative IPC: 0.27209 (Simulation time: 0 hr 12 min 11 sec) 
Heartbeat CPU  2 instructions:  108000000 cycles:  187407776 heartbeat IPC: 0.38711 cumulative IPC: 0.28685 (Simulation time: 0 hr 12 min 13 sec) 
Heartbeat CPU  3 instructions:  107000001 cycles:  187722789 heartbeat IPC: 0.37379 cumulative IPC: 0.27611 (Simulation time: 0 hr 12 min 14 sec) 
Heartbeat CPU  1 instructions:   89000002 cycles:  188356247 heartbeat IPC: 0.31699 cumulative IPC: 0.23762 (Simulation time: 0 hr 12 min 16 sec) 
Heartbeat CPU  0 instructions:  101000003 cycles:  190235630 heartbeat IPC: 0.29734 cumulative IPC: 0.27260 (Simulation time: 0 hr 12 min 21 sec) 
Heartbeat CPU  2 instructions:  109000000 cycles:  190292990 heartbeat IPC: 0.34659 cumulative IPC: 0.28789 (Simulation time: 0 hr 12 min 21 sec) 
Heartbeat CPU  3 instructions:  108000000 cycles:  190806046 heartbeat IPC: 0.32433 cumulative IPC: 0.27700 (Simulation time: 0 hr 12 min 23 sec) 
Heartbeat CPU  1 instructions:   90000003 cycles:  191019721 heartbeat IPC: 0.37545 cumulative IPC: 0.23982 (Simulation time: 0 hr 12 min 23 sec) 
Heartbeat CPU  2 instructions:  110000000 cycles:  192918151 heartbeat IPC: 0.38093 cumulative IPC: 0.28934 (Simulation time: 0 hr 12 min 29 sec) 
Heartbeat CPU  0 instructions:  102000001 cycles:  193453291 heartbeat IPC: 0.31078 cumulative IPC: 0.27332 (Simulation time: 0 hr 12 min 30 sec) 
Heartbeat CPU  3 instructions:  109000000 cycles:  193526616 heartbeat IPC: 0.36757 cumulative IPC: 0.27846 (Simulation time: 0 hr 12 min 31 sec) 
Heartbeat CPU  1 instructions:   91000003 cycles:  193714097 heartbeat IPC: 0.37114 cumulative IPC: 0.24191 (Simulation time: 0 hr 12 min 31 sec) 
Heartbeat CPU  0 instructions:  103000002 cycles:  196025668 heartbeat IPC: 0.38875 cumulative IPC: 0.27505 (Simulation time: 0 hr 12 min 38 sec) 
Heartbeat CPU  2 instructions:  111000001 cycles:  196243630 heartbeat IPC: 0.30071 cumulative IPC: 0.28956 (Simulation time: 0 hr 12 min 38 sec) 
Heartbeat CPU  3 instructions:  110000000 cycles:  196454603 heartbeat IPC: 0.34153 cumulative IPC: 0.27953 (Simulation time: 0 hr 12 min 39 sec) 
Heartbeat CPU  1 instructions:   92000000 cycles:  196470006 heartbeat IPC: 0.36286 cumulative IPC: 0.24385 (Simulation time: 0 hr 12 min 39 sec) 
Heartbeat CPU  0 instructions:  104000000 cycles:  198605181 heartbeat IPC: 0.38767 cumulative IPC: 0.27672 (Simulation time: 0 hr 12 min 45 sec) 
Heartbeat CPU  1 instructions:   93000001 cycles:  198910829 heartbeat IPC: 0.40970 cumulative IPC: 0.24616 (Simulation time: 0 hr 12 min 46 sec) 
Heartbeat CPU  2 instructions:  112000000 cycles:  198934619 heartbeat IPC: 0.37161 cumulative IPC: 0.29082 (Simulation time: 0 hr 12 min 46 sec) 
Heartbeat CPU  3 instructions:  111000003 cycles:  199108731 heartbeat IPC: 0.37677 cumulative IPC: 0.28100 (Simulation time: 0 hr 12 min 47 sec) 
Heartbeat CPU  0 instructions:  105000001 cycles:  201220093 heartbeat IPC: 0.38242 cumulative IPC: 0.27828 (Simulation time: 0 hr 12 min 53 sec) 
Heartbeat CPU  1 instructions:   94000001 cycles:  201641840 heartbeat IPC: 0.36616 cumulative IPC: 0.24801 (Simulation time: 0 hr 12 min 54 sec) 
Heartbeat CPU  3 instructions:  112000000 cycles:  201808885 heartbeat IPC: 0.37035 cumulative IPC: 0.28236 (Simulation time: 0 hr 12 min 55 sec) 
Heartbeat CPU  2 instructions:  113000003 cycles:  201868616 heartbeat IPC: 0.34083 cumulative IPC: 0.29165 (Simulation time: 0 hr 12 min 55 sec) 
Heartbeat CPU  0 instructions:  106000001 cycles:  204112319 heartbeat IPC: 0.34575 cumulative IPC: 0.27937 (Simulation time: 0 hr 13 min 1 sec) 
Heartbeat CPU  3 instructions:  113000002 cycles:  204521501 heartbeat IPC: 0.36865 cumulative IPC: 0.28366 (Simulation time: 0 hr 13 min 2 sec) 
Heartbeat CPU  2 instructions:  114000002 cycles:  204700721 heartbeat IPC: 0.35309 cumulative IPC: 0.29261 (Simulation time: 0 hr 13 min 3 sec) 
Heartbeat CPU  1 instructions:   95000001 cycles:  204986687 heartbeat IPC: 0.29897 cumulative IPC: 0.24895 (Simulation time: 0 hr 13 min 3 sec) 
Heartbeat CPU  1 instructions:   96000000 cycles:  206901022 heartbeat IPC: 0.52237 cumulative IPC: 0.25182 (Simulation time: 0 hr 13 min 9 sec) 
Heartbeat CPU  2 instructions:  115000001 cycles:  207155174 heartbeat IPC: 0.40742 cumulative IPC: 0.29415 (Simulation time: 0 hr 13 min 10 sec) 
Heartbeat CPU  3 instructions:  114000003 cycles:  207510914 heartbeat IPC: 0.33451 cumulative IPC: 0.28449 (Simulation time: 0 hr 13 min 11 sec) 
Heartbeat CPU  0 instructions:  107000000 cycles:  208083954 heartbeat IPC: 0.25179 cumulative IPC: 0.27877 (Simulation time: 0 hr 13 min 12 sec) 
Heartbeat CPU  1 instructions:   97000002 cycles:  209594494 heartbeat IPC: 0.37127 cumulative IPC: 0.25355 (Simulation time: 0 hr 13 min 17 sec) 
Heartbeat CPU  3 instructions:  115000000 cycles:  210461319 heartbeat IPC: 0.33894 cumulative IPC: 0.28535 (Simulation time: 0 hr 13 min 19 sec) 
Heartbeat CPU  2 instructions:  116000000 cycles:  210487746 heartbeat IPC: 0.30007 cumulative IPC: 0.29426 (Simulation time: 0 hr 13 min 20 sec) 
Heartbeat CPU  0 instructions:  108000000 cycles:  211179133 heartbeat IPC: 0.32308 cumulative IPC: 0.27950 (Simulation time: 0 hr 13 min 22 sec) 
Heartbeat CPU  1 instructions:   98000002 cycles:  212191991 heartbeat IPC: 0.38499 cumulative IPC: 0.25537 (Simulation time: 0 hr 13 min 25 sec) 
Heartbeat CPU  3 instructions:  116000000 cycles:  213150446 heartbeat IPC: 0.37187 cumulative IPC: 0.28659 (Simulation time: 0 hr 13 min 27 sec) 
Heartbeat CPU  2 instructions:  117000000 cycles:  213421931 heartbeat IPC: 0.34081 cumulative IPC: 0.29498 (Simulation time: 0 hr 13 min 28 sec) 
Heartbeat CPU  0 instructions:  109000002 cycles:  214427899 heartbeat IPC: 0.30781 cumulative IPC: 0.27999 (Simulation time: 0 hr 13 min 31 sec) 
Heartbeat CPU  1 instructions:   99000002 cycles:  214766830 heartbeat IPC: 0.38837 cumulative IPC: 0.25717 (Simulation time: 0 hr 13 min 32 sec) 
Heartbeat CPU  3 instructions:  117000001 cycles:  215410867 heartbeat IPC: 0.44240 cumulative IPC: 0.28843 (Simulation time: 0 hr 13 min 34 sec) 
Heartbeat CPU  2 instructions:  118000000 cycles:  216004054 heartbeat IPC: 0.38728 cumulative IPC: 0.29622 (Simulation time: 0 hr 13 min 36 sec) 
*** Reached end of trace for Core: 1 Repeating trace: /data3/CASSANDRA/traces/cassandra_phase4_core1.trace.xz
Heartbeat CPU  1 instructions:  100000000 cycles:  217615955 heartbeat IPC: 0.35098 cumulative IPC: 0.25855 (Simulation time: 0 hr 13 min 40 sec) 
Heartbeat CPU  0 instructions:  110000000 cycles:  217660458 heartbeat IPC: 0.30935 cumulative IPC: 0.28048 (Simulation time: 0 hr 13 min 40 sec) 
Heartbeat CPU  2 instructions:  119000003 cycles:  218525337 heartbeat IPC: 0.39662 cumulative IPC: 0.29753 (Simulation time: 0 hr 13 min 43 sec) 
Heartbeat CPU  3 instructions:  118000000 cycles:  218750510 heartbeat IPC: 0.29943 cumulative IPC: 0.28862 (Simulation time: 0 hr 13 min 44 sec) 
Heartbeat CPU  1 instructions:  101000000 cycles:  219904787 heartbeat IPC: 0.43690 cumulative IPC: 0.26064 (Simulation time: 0 hr 13 min 47 sec) 
Heartbeat CPU  0 instructions:  111000000 cycles:  220358770 heartbeat IPC: 0.37060 cumulative IPC: 0.28172 (Simulation time: 0 hr 13 min 49 sec) 
Heartbeat CPU  2 instructions:  120000000 cycles:  220556513 heartbeat IPC: 0.49232 cumulative IPC: 0.29954 (Simulation time: 0 hr 13 min 49 sec) 
Heartbeat CPU  1 instructions:  102000003 cycles:  221590088 heartbeat IPC: 0.59337 cumulative IPC: 0.26348 (Simulation time: 0 hr 13 min 53 sec) 
Heartbeat CPU  3 instructions:  119000003 cycles:  221857410 heartbeat IPC: 0.32187 cumulative IPC: 0.28914 (Simulation time: 0 hr 13 min 53 sec) 
Heartbeat CPU  2 instructions:  121000003 cycles:  223023646 heartbeat IPC: 0.40533 cumulative IPC: 0.30086 (Simulation time: 0 hr 13 min 57 sec) 
Heartbeat CPU  0 instructions:  112000000 cycles:  223074163 heartbeat IPC: 0.36827 cumulative IPC: 0.28290 (Simulation time: 0 hr 13 min 57 sec) 
Heartbeat CPU  1 instructions:  103000001 cycles:  224731714 heartbeat IPC: 0.31831 cumulative IPC: 0.26434 (Simulation time: 0 hr 14 min 2 sec) 
Heartbeat CPU  3 instructions:  120000000 cycles:  224822689 heartbeat IPC: 0.33724 cumulative IPC: 0.28985 (Simulation time: 0 hr 14 min 2 sec) 
Heartbeat CPU  2 instructions:  122000001 cycles:  225062219 heartbeat IPC: 0.49054 cumulative IPC: 0.30278 (Simulation time: 0 hr 14 min 3 sec) 
Heartbeat CPU  0 instructions:  113000002 cycles:  225824674 heartbeat IPC: 0.36357 cumulative IPC: 0.28400 (Simulation time: 0 hr 14 min 5 sec) 
Heartbeat CPU  1 instructions:  104000000 cycles:  227029065 heartbeat IPC: 0.43528 cumulative IPC: 0.26627 (Simulation time: 0 hr 14 min 9 sec) 
Heartbeat CPU  3 instructions:  121000000 cycles:  227410029 heartbeat IPC: 0.38650 cumulative IPC: 0.29108 (Simulation time: 0 hr 14 min 10 sec) 
Heartbeat CPU  2 instructions:  123000001 cycles:  227584360 heartbeat IPC: 0.39649 cumulative IPC: 0.30394 (Simulation time: 0 hr 14 min 11 sec) 
Heartbeat CPU  0 instructions:  114000000 cycles:  229201929 heartbeat IPC: 0.29610 cumulative IPC: 0.28420 (Simulation time: 0 hr 14 min 15 sec) 
Heartbeat CPU  1 instructions:  105000003 cycles:  229772550 heartbeat IPC: 0.36450 cumulative IPC: 0.26758 (Simulation time: 0 hr 14 min 17 sec) 
Heartbeat CPU  3 instructions:  122000000 cycles:  230270279 heartbeat IPC: 0.34962 cumulative IPC: 0.29189 (Simulation time: 0 hr 14 min 19 sec) 
Heartbeat CPU  2 instructions:  124000000 cycles:  230500059 heartbeat IPC: 0.34297 cumulative IPC: 0.30449 (Simulation time: 0 hr 14 min 19 sec) 
Heartbeat CPU  0 instructions:  115000002 cycles:  232254096 heartbeat IPC: 0.32764 cumulative IPC: 0.28484 (Simulation time: 0 hr 14 min 25 sec) 
Heartbeat CPU  3 instructions:  123000002 cycles:  232528394 heartbeat IPC: 0.44285 cumulative IPC: 0.29353 (Simulation time: 0 hr 14 min 25 sec) 
Heartbeat CPU  1 instructions:  106000000 cycles:  232557198 heartbeat IPC: 0.35911 cumulative IPC: 0.26881 (Simulation time: 0 hr 14 min 26 sec) 
Heartbeat CPU  2 instructions:  125000001 cycles:  233126062 heartbeat IPC: 0.38081 cumulative IPC: 0.30545 (Simulation time: 0 hr 14 min 27 sec) 
Heartbeat CPU  0 instructions:  116000000 cycles:  234989453 heartbeat IPC: 0.36558 cumulative IPC: 0.28588 (Simulation time: 0 hr 14 min 33 sec) 
Heartbeat CPU  3 instructions:  124000000 cycles:  235016870 heartbeat IPC: 0.40185 cumulative IPC: 0.29481 (Simulation time: 0 hr 14 min 33 sec) 
Heartbeat CPU  1 instructions:  107000002 cycles:  235509959 heartbeat IPC: 0.33867 cumulative IPC: 0.26978 (Simulation time: 0 hr 14 min 34 sec) 
Heartbeat CPU  2 instructions:  126000001 cycles:  235651056 heartbeat IPC: 0.39604 cumulative IPC: 0.30654 (Simulation time: 0 hr 14 min 35 sec) 
Heartbeat CPU  0 instructions:  117000002 cycles:  237684819 heartbeat IPC: 0.37101 cumulative IPC: 0.28696 (Simulation time: 0 hr 14 min 41 sec) 
Heartbeat CPU  3 instructions:  125000000 cycles:  238193777 heartbeat IPC: 0.31477 cumulative IPC: 0.29511 (Simulation time: 0 hr 14 min 42 sec) 
Heartbeat CPU  1 instructions:  108000000 cycles:  238589055 heartbeat IPC: 0.32477 cumulative IPC: 0.27057 (Simulation time: 0 hr 14 min 43 sec) 
Heartbeat CPU  2 instructions:  127000000 cycles:  238626536 heartbeat IPC: 0.33608 cumulative IPC: 0.30695 (Simulation time: 0 hr 14 min 43 sec) 
Heartbeat CPU  1 instructions:  109000000 cycles:  241068734 heartbeat IPC: 0.40328 cumulative IPC: 0.27209 (Simulation time: 0 hr 14 min 50 sec) 
Heartbeat CPU  3 instructions:  126000000 cycles:  241081237 heartbeat IPC: 0.34633 cumulative IPC: 0.29579 (Simulation time: 0 hr 14 min 50 sec) 
Heartbeat CPU  2 instructions:  128000000 cycles:  241545560 heartbeat IPC: 0.34258 cumulative IPC: 0.30742 (Simulation time: 0 hr 14 min 51 sec) 
Heartbeat CPU  0 instructions:  118000003 cycles:  241625934 heartbeat IPC: 0.25374 cumulative IPC: 0.28636 (Simulation time: 0 hr 14 min 51 sec) 
Heartbeat CPU  1 instructions:  110000001 cycles:  243174984 heartbeat IPC: 0.47478 cumulative IPC: 0.27404 (Simulation time: 0 hr 14 min 56 sec) 
Heartbeat CPU  3 instructions:  127000003 cycles:  243953474 heartbeat IPC: 0.34816 cumulative IPC: 0.29647 (Simulation time: 0 hr 14 min 58 sec) 
Heartbeat CPU  2 instructions:  129000001 cycles:  244220606 heartbeat IPC: 0.37383 cumulative IPC: 0.30823 (Simulation time: 0 hr 14 min 59 sec) 
Heartbeat CPU  0 instructions:  119000000 cycles:  245108082 heartbeat IPC: 0.28718 cumulative IPC: 0.28637 (Simulation time: 0 hr 15 min 1 sec) 
Heartbeat CPU  1 instructions:  111000003 cycles:  245678721 heartbeat IPC: 0.39940 cumulative IPC: 0.27546 (Simulation time: 0 hr 15 min 3 sec) 
Heartbeat CPU  3 instructions:  128000000 cycles:  246283647 heartbeat IPC: 0.42915 cumulative IPC: 0.29786 (Simulation time: 0 hr 15 min 5 sec) 
Heartbeat CPU  2 instructions:  130000001 cycles:  246818513 heartbeat IPC: 0.38493 cumulative IPC: 0.30913 (Simulation time: 0 hr 15 min 7 sec) 
Heartbeat CPU  1 instructions:  112000000 cycles:  248184021 heartbeat IPC: 0.39915 cumulative IPC: 0.27684 (Simulation time: 0 hr 15 min 11 sec) 
Heartbeat CPU  0 instructions:  120000000 cycles:  248213217 heartbeat IPC: 0.32205 cumulative IPC: 0.28686 (Simulation time: 0 hr 15 min 11 sec) 
Heartbeat CPU  3 instructions:  129000002 cycles:  249226947 heartbeat IPC: 0.33976 cumulative IPC: 0.29841 (Simulation time: 0 hr 15 min 14 sec) 
Heartbeat CPU  2 instructions:  131000000 cycles:  249412812 heartbeat IPC: 0.38546 cumulative IPC: 0.31001 (Simulation time: 0 hr 15 min 14 sec) 
Heartbeat CPU  1 instructions:  113000003 cycles:  250756324 heartbeat IPC: 0.38876 cumulative IPC: 0.27811 (Simulation time: 0 hr 15 min 18 sec) 
Heartbeat CPU  0 instructions:  121000001 cycles:  251376673 heartbeat IPC: 0.31611 cumulative IPC: 0.28727 (Simulation time: 0 hr 15 min 20 sec) 
Heartbeat CPU  3 instructions:  130000000 cycles:  252247881 heartbeat IPC: 0.33102 cumulative IPC: 0.29884 (Simulation time: 0 hr 15 min 22 sec) 
Heartbeat CPU  2 instructions:  132000000 cycles:  252273320 heartbeat IPC: 0.34959 cumulative IPC: 0.31050 (Simulation time: 0 hr 15 min 23 sec) 
Heartbeat CPU  1 instructions:  114000003 cycles:  253494909 heartbeat IPC: 0.36515 cumulative IPC: 0.27915 (Simulation time: 0 hr 15 min 26 sec) 
Heartbeat CPU  0 instructions:  122000002 cycles:  254793008 heartbeat IPC: 0.29271 cumulative IPC: 0.28735 (Simulation time: 0 hr 15 min 30 sec) 
Heartbeat CPU  2 instructions:  133000000 cycles:  254910813 heartbeat IPC: 0.37915 cumulative IPC: 0.31129 (Simulation time: 0 hr 15 min 31 sec) 
Heartbeat CPU  3 instructions:  131000002 cycles:  254953055 heartbeat IPC: 0.36966 cumulative IPC: 0.29967 (Simulation time: 0 hr 15 min 31 sec) 
Heartbeat CPU  1 instructions:  115000001 cycles:  255603006 heartbeat IPC: 0.47436 cumulative IPC: 0.28093 (Simulation time: 0 hr 15 min 33 sec) 
Heartbeat CPU  2 instructions:  134000003 cycles:  257255770 heartbeat IPC: 0.42645 cumulative IPC: 0.31245 (Simulation time: 0 hr 15 min 38 sec) 
Heartbeat CPU  0 instructions:  123000000 cycles:  257521177 heartbeat IPC: 0.36655 cumulative IPC: 0.28828 (Simulation time: 0 hr 15 min 39 sec) 
Heartbeat CPU  1 instructions:  116000000 cycles:  257599358 heartbeat IPC: 0.50091 cumulative IPC: 0.28281 (Simulation time: 0 hr 15 min 39 sec) 
Heartbeat CPU  3 instructions:  132000000 cycles:  257660219 heartbeat IPC: 0.36939 cumulative IPC: 0.30048 (Simulation time: 0 hr 15 min 39 sec) 
Heartbeat CPU  2 instructions:  135000000 cycles:  259894773 heartbeat IPC: 0.37893 cumulative IPC: 0.31319 (Simulation time: 0 hr 15 min 46 sec) 
Heartbeat CPU  0 instructions:  124000000 cycles:  260262106 heartbeat IPC: 0.36484 cumulative IPC: 0.28917 (Simulation time: 0 hr 15 min 47 sec) 
Heartbeat CPU  3 instructions:  133000002 cycles:  260713869 heartbeat IPC: 0.32748 cumulative IPC: 0.30083 (Simulation time: 0 hr 15 min 48 sec) 
Heartbeat CPU  1 instructions:  117000002 cycles:  262640584 heartbeat IPC: 0.19836 cumulative IPC: 0.28103 (Simulation time: 0 hr 15 min 53 sec) 
Heartbeat CPU  2 instructions:  136000000 cycles:  262893614 heartbeat IPC: 0.33346 cumulative IPC: 0.31345 (Simulation time: 0 hr 15 min 53 sec) 
Heartbeat CPU  0 instructions:  125000001 cycles:  262976913 heartbeat IPC: 0.36835 cumulative IPC: 0.29007 (Simulation time: 0 hr 15 min 53 sec) 
Heartbeat CPU  3 instructions:  134000000 cycles:  263929162 heartbeat IPC: 0.31101 cumulative IPC: 0.30097 (Simulation time: 0 hr 15 min 56 sec) 
Heartbeat CPU  1 instructions:  118000000 cycles:  265463773 heartbeat IPC: 0.35421 cumulative IPC: 0.28188 (Simulation time: 0 hr 16 min 0 sec) 
Heartbeat CPU  0 instructions:  126000001 cycles:  266545485 heartbeat IPC: 0.28022 cumulative IPC: 0.28992 (Simulation time: 0 hr 16 min 2 sec) 
Heartbeat CPU  3 instructions:  135000003 cycles:  267123774 heartbeat IPC: 0.31303 cumulative IPC: 0.30113 (Simulation time: 0 hr 16 min 4 sec) 
Heartbeat CPU  2 instructions:  137000000 cycles:  267476068 heartbeat IPC: 0.21822 cumulative IPC: 0.31165 (Simulation time: 0 hr 16 min 5 sec) 
Heartbeat CPU  0 instructions:  127000000 cycles:  269340235 heartbeat IPC: 0.35781 cumulative IPC: 0.29070 (Simulation time: 0 hr 16 min 10 sec) 
[...]
Core_3_L2C_pq_full 0

Core_3_L2C_acc_epochs 221913
Core_3_L2C_acc_level_0 108745
Core_3_L2C_acc_level_1 18036
Core_3_L2C_acc_level_2 16264
Core_3_L2C_acc_level_3 12670
Core_3_L2C_acc_level_4 6406
Core_3_L2C_acc_level_5 16421
Core_3_L2C_acc_level_6 10730
Core_3_L2C_acc_level_7 7799
Core_3_L2C_acc_level_8 6504
Core_3_L2C_acc_level_9 18338

Core_3_LLC_total_access 2852984
Core_3_LLC_total_hit 1543593
Core_3_LLC_total_miss 1309391
Core_3_LLC_loads 964353
Core_3_LLC_load_hit 478906
Core_3_LLC_load_miss 485447
Core_3_LLC_RFOs 158959
Core_3_LLC_RFO_hit 34388
Core_3_LLC_RFO_miss 124571
Core_3_LLC_prefetches 1351304
Core_3_LLC_prefetch_hit 720760
Core_3_LLC_prefetch_miss 630544
Core_3_LLC_writebacks 378368
Core_3_LLC_writeback_hit 309539
Core_3_LLC_writeback_miss 68829
Core_3_LLC_prefetch_requested 0
Core_3_LLC_prefetch_dropped 0
Core_3_LLC_prefetch_issued 0
Core_3_LLC_prefetch_filled 4000194
Core_3_LLC_prefetch_useful 1534969
Core_3_LLC_prefetch_useless 2430126
Core_3_LLC_prefetch_late 155053
Core_3_LLC_average_miss_latency 887.99305

Core_3_LLC_rq_access 5694479
Core_3_LLC_rq_forward 0
Core_3_LLC_rq_merged 0
Core_3_LLC_rq_to_cache 5694463
Core_3_LLC_rq_full 0

Core_3_LLC_wq_access 1816003
Core_3_LLC_wq_forward 18
Core_3_LLC_wq_merged 0
Core_3_LLC_wq_to_cache 1816003
Core_3_LLC_wq_full 0

Core_3_LLC_pq_access 12107433
Core_3_LLC_pq_forward 0
Core_3_LLC_pq_merged 579878
Core_3_LLC_pq_to_cache 11527553
Core_3_LLC_pq_full 0

Core_3_LLC_acc_epochs 573280
Core_3_LLC_acc_level_0 60544
Core_3_LLC_acc_level_1 67333
Core_3_LLC_acc_level_2 100883
Core_3_LLC_acc_level_3 105245
Core_3_LLC_acc_level_4 80503
Core_3_LLC_acc_level_5 60598
Core_3_LLC_acc_level_6 36584
Core_3_LLC_acc_level_7 20883
Core_3_LLC_acc_level_8 11959
Core_3_LLC_acc_level_9 28748

Core_3_major_page_fault 0
Core_3_minor_page_fault 51989

spp.pref.total 4085106
spp.pref.at_L2 301698
spp.pref.at_LLC 3783408

spp.depth.max 10
spp.depth.min 0
spp.depth.avg 1

spp.breadth.max 2
spp.breadth.min 0
spp.breadth.avg 0

delta_1 4305953
delta_-1 15644
delta_2 11564
delta_3 9747
delta_4 7780
delta_-3 7484
delta_-2 7168
delta_5 3431
delta_7 2426
delta_-5 2086
delta_-4 1780
delta_34 1689
delta_6 1420
delta_11 1292
delta_-22 967
delta_-9 923
delta_-12 870
delta_18 790
delta_19 588
delta_36 586
delta_-6 478
delta_-14 473
delta_14 464
delta_-17 372
delta_-8 343
delta_8 313
delta_12 297
delta_9 284
delta_-42 270
delta_20 258
delta_-19 234
delta_23 224
delta_-16 223
delta_32 220
delta_-7 212
delta_37 203
delta_17 202
delta_-20 178
delta_13 155
delta_-13 155
delta_22 154
delta_35 151
delta_-10 132
delta_-15 131
delta_-25 120
delta_-23 119
delta_-27 118
delta_-43 107
delta_15 106
delta_-18 102
delta_10 97
delta_-29 81
delta_-36 76
delta_31 72
delta_-33 57
delta_28 53
delta_-26 49
delta_39 38
delta_-11 37
delta_-35 31
delta_-32 28
delta_-21 25
delta_-46 19
delta_29 18
delta_-28 9
delta_45 9
delta_25 9
delta_33 8
delta_-41 5
delta_26 4
delta_30 4
delta_24 3

depth_1_delta_1 2218416
depth_1_delta_-1 12366
depth_1_delta_2 7944
depth_1_delta_3 6190
depth_1_delta_-3 5690
depth_1_delta_4 5658
depth_1_delta_-2 4689
depth_1_delta_5 2432
depth_1_delta_7 2068
depth_1_delta_-5 1636
depth_1_delta_-4 1547
depth_1_delta_11 1286
depth_1_delta_6 1245
depth_1_delta_-9 871
depth_1_delta_-12 861
depth_1_delta_34 722
depth_1_delta_18 590
depth_1_delta_19 583
depth_1_delta_36 525
depth_1_delta_-6 475
depth_1_delta_-14 471
depth_1_delta_-22 460
depth_1_delta_14 458
depth_1_delta_-17 345
depth_1_delta_-8 342
depth_1_delta_8 311
depth_1_delta_12 290
depth_1_delta_9 284
depth_1_delta_-42 269
depth_1_delta_20 258
depth_1_delta_-19 234
depth_1_delta_23 224
depth_1_delta_-16 223
depth_1_delta_-7 210
depth_1_delta_32 209
depth_1_delta_17 184
depth_1_delta_37 180
depth_1_delta_-20 178
depth_1_delta_-13 155
depth_1_delta_22 149
depth_1_delta_35 134
depth_1_delta_-15 129
depth_1_delta_-10 127
depth_1_delta_-23 119
depth_1_delta_13 118
depth_1_delta_-27 117
depth_1_delta_15 106
depth_1_delta_-18 102
depth_1_delta_10 97
depth_1_delta_-43 94
depth_1_delta_-29 80
depth_1_delta_-25 72
depth_1_delta_31 68
depth_1_delta_-36 58
depth_1_delta_-33 55
depth_1_delta_28 53
depth_1_delta_-26 49
depth_1_delta_39 38
depth_1_delta_-11 37
depth_1_delta_-35 31
depth_1_delta_-32 28
depth_1_delta_-21 25
depth_1_delta_-46 19
depth_1_delta_29 18
depth_1_delta_-28 9
depth_1_delta_25 9
depth_1_delta_45 9
depth_1_delta_33 8
depth_1_delta_-41 5
depth_1_delta_26 4
depth_1_delta_30 4
depth_1_delta_24 3
depth_2_delta_1 1053414
depth_2_delta_-2 2475
depth_2_delta_3 2260
depth_2_delta_4 2122
depth_2_delta_-1 2098
depth_2_delta_2 1770
depth_2_delta_-3 1030
depth_2_delta_5 716
depth_2_delta_34 523
depth_2_delta_7 300
depth_2_delta_-5 286
depth_2_delta_-22 210
depth_2_delta_-4 188
depth_2_delta_18 174
depth_2_delta_6 174
depth_2_delta_36 61
depth_2_delta_-9 52
depth_2_delta_-25 39
depth_2_delta_13 36
depth_2_delta_-17 27
depth_2_delta_37 23
depth_2_delta_-36 18
depth_2_delta_17 18
depth_2_delta_35 17
depth_2_delta_-43 13
depth_2_delta_32 11
depth_2_delta_-12 9
depth_2_delta_12 7
depth_2_delta_14 6
depth_2_delta_11 6
depth_2_delta_22 5
depth_2_delta_19 5
depth_2_delta_-10 5
depth_2_delta_31 4
depth_2_delta_-6 3
depth_2_delta_8 2
depth_2_delta_-7 2
depth_2_delta_-33 2
depth_2_delta_-15 2
depth_2_delta_-14 2
depth_2_delta_-8 1
depth_2_delta_-29 1
depth_2_delta_-42 1
depth_2_delta_-27 1
depth_3_delta_1 547025
depth_3_delta_3 1297
depth_3_delta_2 874
depth_3_delta_-1 751
depth_3_delta_-3 477
depth_3_delta_34 392
depth_3_delta_5 231
depth_3_delta_-22 161
depth_3_delta_-5 153
depth_3_delta_-4 45
depth_3_delta_7 40
depth_3_delta_18 24
depth_3_delta_-25 9
depth_3_delta_-2 4
depth_3_delta_6 1
depth_3_delta_13 1
depth_4_delta_1 259881
depth_4_delta_2 650
depth_4_delta_-3 280
depth_4_delta_-1 259
depth_4_delta_-22 125
depth_4_delta_34 52
depth_4_delta_5 42
depth_4_delta_7 11
depth_4_delta_-5 11
depth_4_delta_18 2
depth_5_delta_1 109676
depth_5_delta_2 326
depth_5_delta_-1 125
depth_5_delta_-22 11
depth_5_delta_-3 7
depth_5_delta_5 7
depth_5_delta_7 4
depth_6_delta_1 63227
depth_6_delta_-1 45
depth_6_delta_7 3
depth_6_delta_5 3
depth_7_delta_1 33590
depth_8_delta_1 13687
depth_9_delta_1 6210
depth_10_delta_1 827

spp.pref.total 6550815
spp.pref.at_L2 551487
spp.pref.at_LLC 5999328

spp.depth.max 11
spp.depth.min 0
spp.depth.avg 1

spp.breadth.max 2
spp.breadth.min 0
spp.breadth.avg 0

delta_1 6626968
delta_2 117473
delta_3 102957
delta_-1 28067
delta_4 11065
delta_-3 10198
delta_-2 9262
delta_-6 8038
delta_5 4069
delta_6 3558
delta_-4 2877
delta_-8 2570
delta_9 2459
delta_-15 2382
delta_7 2109
delta_34 1770
delta_-11 1541
delta_15 1433
delta_35 1385
delta_11 908
delta_-5 742
delta_36 721
delta_18 698
delta_-14 546
delta_8 508
delta_19 491
delta_-9 424
delta_-13 405
delta_14 372
delta_28 339
delta_-32 330
delta_-12 319
delta_-22 286
delta_-7 268
delta_-44 267
delta_-10 228
delta_20 224
delta_-16 216
delta_17 200
delta_37 177
delta_-17 174
delta_-19 149
delta_-25 117
delta_23 116
delta_-23 112
delta_32 103
delta_-20 89
delta_-29 83
delta_10 77
delta_-18 67
delta_31 61
delta_40 57
delta_-33 51
delta_12 48
delta_-24 46
delta_-26 45
delta_-36 41
delta_13 34
delta_-43 29
delta_45 22
delta_48 10
delta_22 7
delta_43 7
delta_16 6
delta_-35 5
delta_29 5
delta_-30 1
delta_42 1

depth_1_delta_1 2704069
depth_1_delta_3 48615
depth_1_delta_2 46297
depth_1_delta_-1 13719
depth_1_delta_4 5999
depth_1_delta_-3 5900
depth_1_delta_-2 5503
depth_1_delta_-6 3209
depth_1_delta_5 2849
depth_1_delta_-4 2387
depth_1_delta_6 2249
depth_1_delta_7 1677
depth_1_delta_-8 959
depth_1_delta_11 908
depth_1_delta_9 874
depth_1_delta_35 856
depth_1_delta_-15 793
depth_1_delta_-5 736
depth_1_delta_34 734
depth_1_delta_18 698
depth_1_delta_-11 666
depth_1_delta_15 656
depth_1_delta_36 630
depth_1_delta_-14 526
depth_1_delta_8 507
depth_1_delta_19 491
depth_1_delta_-13 403
depth_1_delta_-9 373
depth_1_delta_14 371
depth_1_delta_28 338
depth_1_delta_-32 329
depth_1_delta_-12 319
depth_1_delta_-22 284
depth_1_delta_-44 267
depth_1_delta_20 224
depth_1_delta_-7 218
depth_1_delta_-16 216
depth_1_delta_-10 192
depth_1_delta_17 189
depth_1_delta_37 174
depth_1_delta_-17 168
depth_1_delta_-19 149
depth_1_delta_23 116
depth_1_delta_-23 112
depth_1_delta_32 103
depth_1_delta_-20 89
depth_1_delta_-29 81
depth_1_delta_10 77
depth_1_delta_-18 67
depth_1_delta_-25 67
depth_1_delta_31 61
depth_1_delta_40 57
depth_1_delta_-33 51
depth_1_delta_12 48
depth_1_delta_-24 46
depth_1_delta_-26 41
depth_1_delta_-36 34
depth_1_delta_13 34
depth_1_delta_-43 28
depth_1_delta_45 22
depth_1_delta_48 10
depth_1_delta_22 7
depth_1_delta_43 7
depth_1_delta_16 6
depth_1_delta_-35 5
depth_1_delta_29 5
depth_1_delta_-30 1
depth_1_delta_42 1
depth_2_delta_1 1296306
depth_2_delta_3 34269
depth_2_delta_2 28783
depth_2_delta_-1 5741
depth_2_delta_-2 2670
depth_2_delta_4 2329
depth_2_delta_-6 2253
depth_2_delta_-3 1482
depth_2_delta_-8 1215
depth_2_delta_6 828
depth_2_delta_5 665
depth_2_delta_34 569
depth_2_delta_15 537
depth_2_delta_35 529
depth_2_delta_9 492
depth_2_delta_-15 482
depth_2_delta_-11 472
depth_2_delta_-4 372
depth_2_delta_7 268
depth_2_delta_36 91
depth_2_delta_-9 51
depth_2_delta_-7 47
depth_2_delta_-25 46
depth_2_delta_-10 36
depth_2_delta_-14 20
depth_2_delta_17 11
depth_2_delta_-36 7
depth_2_delta_-17 6
depth_2_delta_-5 6
depth_2_delta_-26 4
depth_2_delta_37 3
depth_2_delta_-29 2
depth_2_delta_-13 2
depth_2_delta_-22 2
depth_2_delta_-43 1
depth_2_delta_28 1
depth_2_delta_-32 1
depth_2_delta_14 1
depth_2_delta_8 1
depth_3_delta_1 835895
depth_3_delta_2 18397
depth_3_delta_3 13471
depth_3_delta_-1 3275
depth_3_delta_-6 1651
depth_3_delta_4 1536
depth_3_delta_-3 1072
depth_3_delta_34 467
depth_3_delta_9 459
depth_3_delta_-15 457
depth_3_delta_-2 399
depth_3_delta_-8 396
depth_3_delta_-11 336
depth_3_delta_6 326
depth_3_delta_5 306
depth_3_delta_15 173
depth_3_delta_-4 118
depth_3_delta_7 91
depth_3_delta_-25 4
depth_3_delta_-7 3
depth_4_delta_1 576943
depth_4_delta_2 8155
depth_4_delta_3 6589
depth_4_delta_-1 2409
depth_4_delta_4 933
depth_4_delta_-3 905
depth_4_delta_-6 738
depth_4_delta_-15 435
depth_4_delta_9 425
depth_4_delta_-2 323
depth_4_delta_6 126
depth_4_delta_5 123
depth_4_delta_-11 59
depth_4_delta_15 59
depth_4_delta_7 44
depth_5_delta_1 441651
depth_5_delta_2 7033
depth_5_delta_-1 1546
depth_5_delta_-3 510
depth_5_delta_4 255
depth_5_delta_-2 215
depth_5_delta_-6 186
depth_5_delta_-15 179
depth_5_delta_9 176
depth_5_delta_5 65
depth_5_delta_6 28
depth_5_delta_7 16
depth_5_delta_3 13
depth_5_delta_-11 8
depth_5_delta_15 8
depth_6_delta_1 324296
depth_6_delta_2 5212
depth_6_delta_-1 907
depth_6_delta_-3 282
depth_6_delta_-2 103
depth_6_delta_5 39
depth_6_delta_-15 35
depth_6_delta_9 32
depth_6_delta_4 13
depth_6_delta_7 10
depth_6_delta_6 1
depth_6_delta_-6 1
depth_7_delta_1 221882
depth_7_delta_2 2859
depth_7_delta_-1 342
depth_7_delta_-3 47
depth_7_delta_-2 34
depth_7_delta_5 22
depth_7_delta_7 3
depth_7_delta_9 1
depth_7_delta_-15 1
depth_8_delta_1 134650
depth_8_delta_2 701
depth_8_delta_-1 89
depth_8_delta_-2 11
depth_9_delta_1 72202
depth_9_delta_-1 39
depth_9_delta_2 36
depth_9_delta_-2 4
depth_10_delta_1 19066
depth_11_delta_1 8

spp.pref.total 3683432
spp.pref.at_L2 346361
spp.pref.at_LLC 3337071

spp.depth.max 10
spp.depth.min 0
spp.depth.avg 1

spp.breadth.max 2
spp.breadth.min 0
spp.breadth.avg 0

delta_1 3719073
delta_-1 14055
delta_-3 6852
delta_2 6816
delta_3 6297
delta_-2 5552
delta_5 5488
delta_-9 3013
delta_-10 2370
delta_7 2252
delta_6 1886
delta_34 1617
delta_-4 1412
delta_-17 1244
delta_4 1142
delta_-11 1099
delta_-22 809
delta_-12 644
delta_36 615
delta_21 540
delta_-6 531
delta_8 454
delta_10 369
delta_-5 345
delta_11 324
delta_22 292
delta_-14 286
delta_37 272
delta_19 253
delta_18 238
delta_23 220
delta_-19 210
delta_-8 168
delta_-7 158
delta_-23 154
delta_9 146
delta_15 114
delta_24 108
delta_20 105
delta_35 102
delta_-16 99
delta_12 97
delta_14 79
delta_26 75
delta_-24 66
delta_32 63
delta_-57 62
delta_17 55
delta_-15 53
delta_33 50
delta_-36 48
delta_42 44
delta_-43 41
delta_16 39
delta_-26 38
delta_-18 35
delta_-38 34
delta_30 32
delta_-39 28
delta_-20 22
delta_-25 22
delta_-13 20
delta_31 18
delta_-31 18
delta_-40 14
delta_38 10
delta_-34 9
delta_13 8
delta_-21 7
delta_-32 6
delta_25 4
delta_-41 4
delta_55 2
delta_-27 2
delta_-35 2
delta_-33 1

depth_1_delta_1 1566062
depth_1_delta_-1 9721
depth_1_delta_-3 5082
depth_1_delta_2 5051
depth_1_delta_3 4073
depth_1_delta_5 3930
depth_1_delta_-2 3697
depth_1_delta_-9 3012
depth_1_delta_-10 2164
depth_1_delta_7 1652
depth_1_delta_6 1554
depth_1_delta_-17 1244
depth_1_delta_-4 1182
depth_1_delta_-11 1067
depth_1_delta_4 992
depth_1_delta_34 759
depth_1_delta_-12 634
depth_1_delta_36 563
depth_1_delta_21 524
depth_1_delta_-6 520
depth_1_delta_8 446
depth_1_delta_10 369
depth_1_delta_-5 342
depth_1_delta_-22 293
depth_1_delta_22 292
depth_1_delta_-14 279
depth_1_delta_11 277
depth_1_delta_19 253
depth_1_delta_37 248
depth_1_delta_18 236
depth_1_delta_23 220
depth_1_delta_-19 207
depth_1_delta_-8 168
depth_1_delta_-7 158
depth_1_delta_-23 154
depth_1_delta_9 146
depth_1_delta_15 114
depth_1_delta_24 107
depth_1_delta_35 102
depth_1_delta_20 99
depth_1_delta_-16 99
depth_1_delta_12 87
depth_1_delta_14 79
depth_1_delta_26 75
depth_1_delta_-24 66
depth_1_delta_32 63
depth_1_delta_17 55
depth_1_delta_-15 53
depth_1_delta_33 50
depth_1_delta_-57 49
depth_1_delta_-36 48
depth_1_delta_42 44
depth_1_delta_-43 41
depth_1_delta_16 39
depth_1_delta_-18 35
depth_1_delta_-38 34
depth_1_delta_-26 34
depth_1_delta_30 32
depth_1_delta_-39 28
depth_1_delta_-20 22
depth_1_delta_-25 22
depth_1_delta_-13 20
depth_1_delta_31 18
depth_1_delta_-31 18
depth_1_delta_-40 14
depth_1_delta_38 10
depth_1_delta_-34 9
depth_1_delta_13 8
depth_1_delta_-21 7
depth_1_delta_-32 6
depth_1_delta_25 4
depth_1_delta_-41 4
depth_1_delta_55 2
depth_1_delta_-27 2
depth_1_delta_-35 2
depth_1_delta_-33 1
depth_2_delta_1 758082
depth_2_delta_-1 2799
depth_2_delta_-2 1804
depth_2_delta_3 1358
depth_2_delta_2 1112
depth_2_delta_-3 1111
depth_2_delta_5 863
depth_2_delta_34 506
depth_2_delta_7 393
depth_2_delta_6 275
depth_2_delta_-22 201
depth_2_delta_-10 183
depth_2_delta_-4 172
depth_2_delta_4 111
depth_2_delta_36 52
depth_2_delta_11 47
depth_2_delta_-11 32
depth_2_delta_37 24
depth_2_delta_21 16
depth_2_delta_-57 13
depth_2_delta_-6 11
depth_2_delta_-12 10
depth_2_delta_12 10
depth_2_delta_-14 7
depth_2_delta_8 7
depth_2_delta_20 6
depth_2_delta_-26 4
depth_2_delta_-19 3
depth_2_delta_-5 3
depth_2_delta_18 2
depth_2_delta_-9 1
depth_2_delta_24 1
depth_3_delta_1 561649
depth_3_delta_-1 1001
depth_3_delta_3 849
depth_3_delta_5 411
depth_3_delta_-3 407
depth_3_delta_34 352
depth_3_delta_2 295
depth_3_delta_-22 169
depth_3_delta_7 136
depth_3_delta_-4 58
depth_3_delta_6 54
depth_3_delta_-2 51
depth_3_delta_4 30
depth_3_delta_-10 19
depth_3_delta_8 1
depth_4_delta_1 387308
depth_4_delta_-1 290
depth_4_delta_-3 240
depth_4_delta_2 215
depth_4_delta_5 155
depth_4_delta_-22 140
depth_4_delta_7 43
depth_4_delta_3 13
depth_4_delta_4 8
depth_4_delta_-10 3
depth_4_delta_6 3
depth_5_delta_1 211063
depth_5_delta_-1 146
depth_5_delta_2 143
depth_5_delta_5 67
depth_5_delta_7 15
depth_5_delta_-3 10
depth_5_delta_-22 6
depth_5_delta_3 4
depth_5_delta_4 1
depth_5_delta_-10 1
depth_6_delta_1 123718
depth_6_delta_-1 98
depth_6_delta_5 39
depth_6_delta_7 9
depth_6_delta_-3 2
depth_7_delta_1 67456
depth_7_delta_5 19
depth_7_delta_7 4
depth_8_delta_1 28266
depth_8_delta_5 4
depth_9_delta_1 13325
depth_10_delta_1 2144

spp.pref.total 3952748
spp.pref.at_L2 369434
spp.pref.at_LLC 3583314

spp.depth.max 10
spp.depth.min 0
spp.depth.avg 1

spp.breadth.max 2
spp.breadth.min 0
spp.breadth.avg 0

delta_1 4087621
delta_-1 11367
delta_-3 9989
delta_2 7100
delta_5 3841
delta_-2 3339
delta_3 3317
delta_7 2692
delta_6 1572
delta_34 1570
delta_-4 1559
delta_-6 1286
delta_4 871
delta_-9 821
delta_32 797
delta_-12 682
delta_8 469
delta_14 453
delta_-14 404
delta_36 373
delta_-19 334
delta_-8 308
delta_-43 302
delta_-15 301
delta_-10 270
delta_-17 258
delta_-7 257
delta_9 232
delta_-13 231
delta_19 214
delta_-29 209
delta_-5 207
delta_-26 205
delta_-23 181
delta_-16 164
delta_-30 163
delta_23 162
delta_12 152
delta_20 145
delta_30 133
delta_-18 124
delta_11 112
delta_-20 99
delta_18 97
delta_45 94
delta_42 93
delta_17 87
delta_10 78
delta_-33 63
delta_15 58
delta_33 56
delta_22 48
delta_-11 48
delta_13 44
delta_-25 40
delta_-32 26
delta_-31 18
delta_31 18
delta_35 17
delta_-21 15
delta_27 14
delta_37 14
delta_24 6
delta_-27 3
delta_26 3
delta_16 2
delta_25 2
delta_-34 1
delta_-28 1

depth_1_delta_1 1717237
depth_1_delta_-1 8825
depth_1_delta_-3 7466
depth_1_delta_2 5549
depth_1_delta_-2 2631
depth_1_delta_5 2354
depth_1_delta_3 2331
depth_1_delta_7 2113
depth_1_delta_6 1385
depth_1_delta_-4 1224
depth_1_delta_-6 1193
depth_1_delta_4 849
depth_1_delta_34 780
depth_1_delta_32 765
depth_1_delta_-9 700
depth_1_delta_-12 548
depth_1_delta_8 468
depth_1_delta_14 436
depth_1_delta_-14 350
depth_1_delta_-19 334
depth_1_delta_36 307
depth_1_delta_-15 299
depth_1_delta_-8 284
depth_1_delta_-7 257
depth_1_delta_-17 254
depth_1_delta_-10 240
depth_1_delta_-13 231
depth_1_delta_9 231
depth_1_delta_19 214
depth_1_delta_-29 208
depth_1_delta_-5 207
depth_1_delta_-26 204
depth_1_delta_-43 191
depth_1_delta_-23 181
depth_1_delta_-30 163
depth_1_delta_23 162
depth_1_delta_-16 162
depth_1_delta_12 152
depth_1_delta_20 145
depth_1_delta_30 133
depth_1_delta_-18 124
depth_1_delta_11 111
depth_1_delta_18 97
depth_1_delta_42 93
depth_1_delta_45 92
depth_1_delta_-20 92
depth_1_delta_17 87
depth_1_delta_10 77
depth_1_delta_-33 60
depth_1_delta_15 58
depth_1_delta_33 56
depth_1_delta_22 48
depth_1_delta_-11 48
depth_1_delta_13 44
depth_1_delta_-25 40
depth_1_delta_-32 26
depth_1_delta_-31 18
depth_1_delta_31 18
depth_1_delta_35 17
depth_1_delta_-21 15
depth_1_delta_27 14
depth_1_delta_37 14
depth_1_delta_24 6
depth_1_delta_-27 3
depth_1_delta_26 3
depth_1_delta_16 2
depth_1_delta_25 2
depth_1_delta_-34 1
depth_1_delta_-28 1
depth_2_delta_1 840879
depth_2_delta_-1 1756
depth_2_delta_-3 1346
depth_2_delta_2 1196
depth_2_delta_5 789
depth_2_delta_-2 708
depth_2_delta_3 578
depth_2_delta_34 459
depth_2_delta_7 389
depth_2_delta_-4 305
depth_2_delta_6 187
depth_2_delta_-9 121
depth_2_delta_-43 102
depth_2_delta_-6 93
depth_2_delta_-12 81
depth_2_delta_36 66
depth_2_delta_-14 54
depth_2_delta_32 32
depth_2_delta_-10 30
depth_2_delta_-8 24
depth_2_delta_4 22
depth_2_delta_14 17
depth_2_delta_-20 7
depth_2_delta_-17 4
depth_2_delta_-33 3
depth_2_delta_-15 2
depth_2_delta_45 2
depth_2_delta_-16 2
depth_2_delta_-29 1
depth_2_delta_10 1
depth_2_delta_11 1
depth_2_delta_-26 1
depth_2_delta_9 1
depth_2_delta_8 1
depth_3_delta_1 621306
depth_3_delta_-1 599
depth_3_delta_-3 564
depth_3_delta_3 408
depth_3_delta_5 393
depth_3_delta_34 331
depth_3_delta_2 271
depth_3_delta_7 111
depth_3_delta_-12 53
depth_3_delta_-4 30
depth_3_delta_-43 9
depth_4_delta_1 428824
depth_4_delta_-3 353
depth_4_delta_5 155
depth_4_delta_-1 138
depth_4_delta_2 52
depth_4_delta_7 47
depth_5_delta_1 231874
depth_5_delta_-3 163
depth_5_delta_5 76
depth_5_delta_2 32
depth_5_delta_-1 31
depth_5_delta_7 19
depth_6_delta_1 133035
depth_6_delta_-3 88
depth_6_delta_5 46
depth_6_delta_-1 18
depth_6_delta_7 12
depth_7_delta_1 71178
depth_7_delta_5 24
depth_7_delta_-3 9
depth_7_delta_7 1
depth_8_delta_1 28188
depth_8_delta_5 4
depth_9_delta_1 13464
depth_10_delta_1 1636

Channel_0_RQ_row_buffer_hit 266619
Channel_0_RQ_row_buffer_miss 2584190
Channel_0_WQ_row_buffer_hit 135169
Channel_0_WQ_row_buffer_miss 649465
Channel_0_WQ_full 0
Channel_0_dbus_congested 953595

Channel_1_RQ_row_buffer_hit 266465
Channel_1_RQ_row_buffer_miss 2593368
Channel_1_WQ_row_buffer_hit 137180
Channel_1_WQ_row_buffer_miss 653152
Channel_1_WQ_full 0
Channel_1_dbus_congested 958399

avg_congested_cycle 9

DRAM_bw_pochs 2293117
DRAM_bw_level_0 2057098
DRAM_bw_level_1 190251
DRAM_bw_level_2 33103
DRAM_bw_level_3 12665
