*************************************************
   ChampSim Multicore Out-of-Order Simulator
   Last compiled: Mar 31 2025 20:14:32
*************************************************
parsing config file: /data3/config/mlop.ini

trace_0 /data3/CASSANDRA/traces/cassandra_phase4_core0.trace.xz
trace_1 /data3/CASSANDRA/traces/cassandra_phase4_core1.trace.xz
trace_2 /data3/CASSANDRA/traces/cassandra_phase4_core2.trace.xz
trace_3 /data3/CASSANDRA/traces/cassandra_phase4_core3.trace.xz
adding L2C_PREFETCHER: MLOP
adding L2C_PREFETCHER: MLOP
adding L2C_PREFETCHER: MLOP
adding L2C_PREFETCHER: MLOP
Initialize SHIP state
warmup_instructions 50000000
simulation_instructions 150000000
champsim_seed 8758
measure_ipc 0
measure_ipc_epoch 1000
measure_dram_bw 1
measure_dram_bw_epoch 256
measure_cache_acc 1
measure_cache_acc_epoch 1024
l1d_perfect 0
l2c_perfect 0
llc_perfect 0
l1d_semi_perfect 0
l2c_semi_perfect 0
llc_semi_perfect 0
semi_perfect_cache_page_buffer_size 64

num_cpus 4
cpu_freq 4000
dram_io_freq 2400
page_size 4096
block_size 64
max_read_per_cycle 8
max_fill_per_cycle 1
dram_channels 2
log2_dram_channels 1
dram_ranks 1
dram_banks 8
dram_rows 65536
dram_columns 128
dram_row_size 8
dram_size 8192
dram_pages 2097152

fetch_width 6
decode_width 6
exec_width 4
lq_width 2
sq_width 2
retire_width 4
scheduler_size 128
branch_mispredict_penalty 20
rob_size 256
lq_size 72
sq_size 56
num_instr_destinations_sparc 4
num_instr_destinations 2
num_instr_sources 4

itlb_set 16
itlb_way 8
itlb_rq_size 16
itlb_wq_size 16
itlb_pq_size 0
itlb_mshr_size 8
itlb_latency 1

dtlb_set 16
dtlb_way 4
dtlb_rq_size 16
dtlb_wq_size 16
dtlb_pq_size 0
dtlb_mshr_size 8
dtlb_latency 1

stlb_set 128
stlb_way 12
stlb_rq_size 32
stlb_wq_size 32
stlb_pq_size 0
stlb_mshr_size 16
stlb_latency 8

l1i_size 32
l1i_set 64
l1i_way 8
l1i_rq_size 64
l1i_wq_size 64
l1i_pq_size 8
l1i_mshr_size 8
l1i_latency 1

l1d_size 32
l1d_set 64
l1d_way 8
l1d_rq_size 64
l1d_wq_size 64
l1d_pq_size 8
l1d_mshr_size 16
l1d_latency 4

l2c_size 256
l2c_set 512
l2c_way 8
l2c_rq_size 32
l2c_wq_size 32
l2c_pq_size 32
l2c_mshr_size 32
l2c_latency 10

llc_size 8192
llc_set 8192
llc_way 16
llc_rq_size 128
llc_wq_size 128
llc_pq_size 128
llc_mshr_size 256
llc_latency 20

dram_channel_width 8
dram_wq_size 64
dram_rq_size 64
tRP 15
tRCD 15
tCAS 12.5
dram_dbus_turn_around_time 30
dram_write_high_wm 56
dram_write_low_wm 48
min_dram_writes_per_switch 16
dram_mtps 2400
dram_dbus_return_time 13

mlop_pref_degree 16
mlop_num_updates 500
mlop_l1d_thresh 2
mlop_l2c_thresh 0.75
mlop_llc_thresh 0.3
mlop_debug_level 0
mlop_blocks_in_cache 4096
mlop_blocks_in_zone 64
mlop_amt_size 2048
mlop_PF_DEGREE 16
mlop_NUM_UPDATES 500
mlop_L1D_THRESH 1000
mlop_L2C_THRESH 375
mlop_LLC_THRESH 150
mlop_ORIGIN 63
mlop_MAX_OFFSET 63
mlop_MIN_OFFSET -63
mlop_ORIGIN 63
mlop_NUM_OFFSETS 127


Heartbeat CPU  2 instructions:    1000000 cycles:     333536 heartbeat IPC: 2.99818 cumulative IPC: 2.99818 (Simulation time: 0 hr 0 min 6 sec) 
Heartbeat CPU  3 instructions:    1000002 cycles:     339402 heartbeat IPC: 2.94636 cumulative IPC: 2.94636 (Simulation time: 0 hr 0 min 6 sec) 
Heartbeat CPU  1 instructions:    1000001 cycles:     339808 heartbeat IPC: 2.94284 cumulative IPC: 2.94284 (Simulation time: 0 hr 0 min 6 sec) 
Heartbeat CPU  0 instructions:    1000000 cycles:     511601 heartbeat IPC: 1.95465 cumulative IPC: 1.95465 (Simulation time: 0 hr 0 min 9 sec) 
Heartbeat CPU  1 instructions:    2000000 cycles:     652228 heartbeat IPC: 3.20082 cumulative IPC: 3.06641 (Simulation time: 0 hr 0 min 11 sec) 
Heartbeat CPU  2 instructions:    2000003 cycles:     660635 heartbeat IPC: 3.05719 cumulative IPC: 3.02739 (Simulation time: 0 hr 0 min 11 sec) 
Heartbeat CPU  3 instructions:    2000002 cycles:     664022 heartbeat IPC: 3.08052 cumulative IPC: 3.01195 (Simulation time: 0 hr 0 min 11 sec) 
Heartbeat CPU  0 instructions:    2000003 cycles:     975598 heartbeat IPC: 2.15519 cumulative IPC: 2.05003 (Simulation time: 0 hr 0 min 17 sec) 
Heartbeat CPU  3 instructions:    3000001 cycles:     990580 heartbeat IPC: 3.06224 cumulative IPC: 3.02853 (Simulation time: 0 hr 0 min 17 sec) 
Heartbeat CPU  1 instructions:    3000001 cycles:    1072900 heartbeat IPC: 2.37715 cumulative IPC: 2.79616 (Simulation time: 0 hr 0 min 18 sec) 
Heartbeat CPU  2 instructions:    3000002 cycles:    1246249 heartbeat IPC: 1.70761 cumulative IPC: 2.40723 (Simulation time: 0 hr 0 min 20 sec) 
Heartbeat CPU  0 instructions:    3000002 cycles:    1302512 heartbeat IPC: 3.05891 cumulative IPC: 2.30324 (Simulation time: 0 hr 0 min 21 sec) 
Heartbeat CPU  3 instructions:    4000000 cycles:    1357285 heartbeat IPC: 2.72698 cumulative IPC: 2.94706 (Simulation time: 0 hr 0 min 22 sec) 
Heartbeat CPU  1 instructions:    4000000 cycles:    1580843 heartbeat IPC: 1.96872 cumulative IPC: 2.53030 (Simulation time: 0 hr 0 min 26 sec) 
Heartbeat CPU  0 instructions:    4000000 cycles:    1626861 heartbeat IPC: 3.08309 cumulative IPC: 2.45872 (Simulation time: 0 hr 0 min 26 sec) 
Heartbeat CPU  2 instructions:    4000000 cycles:    1665250 heartbeat IPC: 2.38662 cumulative IPC: 2.40204 (Simulation time: 0 hr 0 min 27 sec) 
Heartbeat CPU  1 instructions:    5000000 cycles:    1914182 heartbeat IPC: 2.99995 cumulative IPC: 2.61208 (Simulation time: 0 hr 0 min 31 sec) 
Heartbeat CPU  3 instructions:    5000001 cycles:    1928786 heartbeat IPC: 1.74978 cumulative IPC: 2.59230 (Simulation time: 0 hr 0 min 31 sec) 
Heartbeat CPU  0 instructions:    5000000 cycles:    1955891 heartbeat IPC: 3.03924 cumulative IPC: 2.55638 (Simulation time: 0 hr 0 min 32 sec) 
Heartbeat CPU  2 instructions:    5000001 cycles:    1995268 heartbeat IPC: 3.03014 cumulative IPC: 2.50593 (Simulation time: 0 hr 0 min 33 sec) 
Heartbeat CPU  1 instructions:    6000000 cycles:    2244208 heartbeat IPC: 3.03006 cumulative IPC: 2.67355 (Simulation time: 0 hr 0 min 37 sec) 
Heartbeat CPU  3 instructions:    6000000 cycles:    2271018 heartbeat IPC: 2.92199 cumulative IPC: 2.64199 (Simulation time: 0 hr 0 min 38 sec) 
Heartbeat CPU  2 instructions:    6000003 cycles:    2321047 heartbeat IPC: 3.06957 cumulative IPC: 2.58504 (Simulation time: 0 hr 0 min 39 sec) 
Heartbeat CPU  0 instructions:    6000003 cycles:    2335005 heartbeat IPC: 2.63774 cumulative IPC: 2.56959 (Simulation time: 0 hr 0 min 39 sec) 
Heartbeat CPU  3 instructions:    7000000 cycles:    2600313 heartbeat IPC: 3.03679 cumulative IPC: 2.69198 (Simulation time: 0 hr 0 min 44 sec) 
Heartbeat CPU  1 instructions:    7000000 cycles:    2601523 heartbeat IPC: 2.79865 cumulative IPC: 2.69073 (Simulation time: 0 hr 0 min 44 sec) 
Heartbeat CPU  2 instructions:    7000001 cycles:    2648857 heartbeat IPC: 3.05054 cumulative IPC: 2.64265 (Simulation time: 0 hr 0 min 44 sec) 
Heartbeat CPU  0 instructions:    7000000 cycles:    2875999 heartbeat IPC: 1.84844 cumulative IPC: 2.43394 (Simulation time: 0 hr 0 min 48 sec) 
Heartbeat CPU  1 instructions:    8000000 cycles:    2966401 heartbeat IPC: 2.74064 cumulative IPC: 2.69687 (Simulation time: 0 hr 0 min 49 sec) 
Heartbeat CPU  2 instructions:    8000000 cycles:    2972930 heartbeat IPC: 3.08572 cumulative IPC: 2.69095 (Simulation time: 0 hr 0 min 49 sec) 
Heartbeat CPU  3 instructions:    8000000 cycles:    2984381 heartbeat IPC: 2.60371 cumulative IPC: 2.68062 (Simulation time: 0 hr 0 min 49 sec) 
Heartbeat CPU  0 instructions:    8000000 cycles:    3268431 heartbeat IPC: 2.54821 cumulative IPC: 2.44766 (Simulation time: 0 hr 0 min 55 sec) 
Heartbeat CPU  1 instructions:    9000002 cycles:    3309553 heartbeat IPC: 2.91417 cumulative IPC: 2.71940 (Simulation time: 0 hr 0 min 55 sec) 
Heartbeat CPU  3 instructions:    9000000 cycles:    3320572 heartbeat IPC: 2.97450 cumulative IPC: 2.71038 (Simulation time: 0 hr 0 min 56 sec) 
Heartbeat CPU  2 instructions:    9000002 cycles:    3348414 heartbeat IPC: 2.66323 cumulative IPC: 2.68784 (Simulation time: 0 hr 0 min 56 sec) 
Heartbeat CPU  1 instructions:   10000003 cycles:    3629067 heartbeat IPC: 3.12976 cumulative IPC: 2.75553 (Simulation time: 0 hr 1 min 1 sec) 
Heartbeat CPU  2 instructions:   10000002 cycles:    3672839 heartbeat IPC: 3.08238 cumulative IPC: 2.72269 (Simulation time: 0 hr 1 min 1 sec) 
Heartbeat CPU  0 instructions:    9000002 cycles:    3712090 heartbeat IPC: 2.25399 cumulative IPC: 2.42451 (Simulation time: 0 hr 1 min 2 sec) 
Heartbeat CPU  3 instructions:   10000001 cycles:    3717795 heartbeat IPC: 2.51748 cumulative IPC: 2.68977 (Simulation time: 0 hr 1 min 2 sec) 
Heartbeat CPU  1 instructions:   11000003 cycles:    3952414 heartbeat IPC: 3.09265 cumulative IPC: 2.78311 (Simulation time: 0 hr 1 min 6 sec) 
Heartbeat CPU  3 instructions:   11000002 cycles:    4045212 heartbeat IPC: 3.05421 cumulative IPC: 2.71926 (Simulation time: 0 hr 1 min 8 sec) 
Heartbeat CPU  2 instructions:   11000001 cycles:    4119682 heartbeat IPC: 2.23792 cumulative IPC: 2.67011 (Simulation time: 0 hr 1 min 9 sec) 
Heartbeat CPU  0 instructions:   10000000 cycles:    4126664 heartbeat IPC: 2.41211 cumulative IPC: 2.42326 (Simulation time: 0 hr 1 min 9 sec) 
Heartbeat CPU  1 instructions:   12000000 cycles:    4276527 heartbeat IPC: 3.08533 cumulative IPC: 2.80602 (Simulation time: 0 hr 1 min 12 sec) 
Heartbeat CPU  3 instructions:   12000000 cycles:    4373782 heartbeat IPC: 3.04349 cumulative IPC: 2.74362 (Simulation time: 0 hr 1 min 14 sec) 
Heartbeat CPU  2 instructions:   12000000 cycles:    4449167 heartbeat IPC: 3.03504 cumulative IPC: 2.69713 (Simulation time: 0 hr 1 min 15 sec) 
Heartbeat CPU  0 instructions:   11000001 cycles:    4471779 heartbeat IPC: 2.89759 cumulative IPC: 2.45987 (Simulation time: 0 hr 1 min 16 sec) 
Heartbeat CPU  1 instructions:   13000000 cycles:    4600782 heartbeat IPC: 3.08399 cumulative IPC: 2.82561 (Simulation time: 0 hr 1 min 18 sec) 
Heartbeat CPU  3 instructions:   13000003 cycles:    4701290 heartbeat IPC: 3.05337 cumulative IPC: 2.76520 (Simulation time: 0 hr 1 min 20 sec) 
Heartbeat CPU  0 instructions:   12000000 cycles:    4802607 heartbeat IPC: 3.02272 cumulative IPC: 2.49864 (Simulation time: 0 hr 1 min 22 sec) 
Heartbeat CPU  2 instructions:   13000001 cycles:    4824946 heartbeat IPC: 2.66114 cumulative IPC: 2.69433 (Simulation time: 0 hr 1 min 22 sec) 
Heartbeat CPU  1 instructions:   14000001 cycles:    4949698 heartbeat IPC: 2.86602 cumulative IPC: 2.82846 (Simulation time: 0 hr 1 min 25 sec) 
Heartbeat CPU  3 instructions:   14000000 cycles:    5057919 heartbeat IPC: 2.80403 cumulative IPC: 2.76794 (Simulation time: 0 hr 1 min 27 sec) 
Heartbeat CPU  0 instructions:   13000002 cycles:    5133510 heartbeat IPC: 3.02204 cumulative IPC: 2.53238 (Simulation time: 0 hr 1 min 28 sec) 
Heartbeat CPU  2 instructions:   14000001 cycles:    5177259 heartbeat IPC: 2.83839 cumulative IPC: 2.70413 (Simulation time: 0 hr 1 min 29 sec) 
Heartbeat CPU  1 instructions:   15000000 cycles:    5267461 heartbeat IPC: 3.14700 cumulative IPC: 2.84767 (Simulation time: 0 hr 1 min 30 sec) 
Heartbeat CPU  3 instructions:   15000003 cycles:    5530243 heartbeat IPC: 2.11720 cumulative IPC: 2.71236 (Simulation time: 0 hr 1 min 34 sec) 
Heartbeat CPU  2 instructions:   15000002 cycles:    5542164 heartbeat IPC: 2.74044 cumulative IPC: 2.70652 (Simulation time: 0 hr 1 min 34 sec) 
Heartbeat CPU  0 instructions:   14000001 cycles:    5601167 heartbeat IPC: 2.13832 cumulative IPC: 2.49948 (Simulation time: 0 hr 1 min 35 sec) 
Heartbeat CPU  1 instructions:   16000000 cycles:    5666349 heartbeat IPC: 2.50697 cumulative IPC: 2.82369 (Simulation time: 0 hr 1 min 36 sec) 
Heartbeat CPU  3 instructions:   16000000 cycles:    5858480 heartbeat IPC: 3.04657 cumulative IPC: 2.73108 (Simulation time: 0 hr 1 min 40 sec) 
Heartbeat CPU  0 instructions:   15000000 cycles:    6001792 heartbeat IPC: 2.49610 cumulative IPC: 2.49925 (Simulation time: 0 hr 1 min 42 sec) 
Heartbeat CPU  2 instructions:   16000000 cycles:    6041512 heartbeat IPC: 2.00261 cumulative IPC: 2.64834 (Simulation time: 0 hr 1 min 42 sec) 
Heartbeat CPU  3 instructions:   17000000 cycles:    6187340 heartbeat IPC: 3.04081 cumulative IPC: 2.74755 (Simulation time: 0 hr 1 min 45 sec) 
Heartbeat CPU  0 instructions:   16000000 cycles:    6331832 heartbeat IPC: 3.02994 cumulative IPC: 2.52691 (Simulation time: 0 hr 1 min 47 sec) 
Heartbeat CPU  2 instructions:   17000001 cycles:    6415900 heartbeat IPC: 2.67103 cumulative IPC: 2.64967 (Simulation time: 0 hr 1 min 48 sec) 
Heartbeat CPU  1 instructions:   17000001 cycles:    6454073 heartbeat IPC: 1.26948 cumulative IPC: 2.63400 (Simulation time: 0 hr 1 min 48 sec) 
Heartbeat CPU  3 instructions:   18000000 cycles:    6590345 heartbeat IPC: 2.48136 cumulative IPC: 2.73127 (Simulation time: 0 hr 1 min 51 sec) 
Heartbeat CPU  0 instructions:   17000003 cycles:    6661010 heartbeat IPC: 3.03788 cumulative IPC: 2.55217 (Simulation time: 0 hr 1 min 52 sec) 
Heartbeat CPU  2 instructions:   18000000 cycles:    6745458 heartbeat IPC: 3.03436 cumulative IPC: 2.66846 (Simulation time: 0 hr 1 min 54 sec) 
Heartbeat CPU  1 instructions:   18000003 cycles:    6813867 heartbeat IPC: 2.77937 cumulative IPC: 2.64167 (Simulation time: 0 hr 1 min 55 sec) 
Heartbeat CPU  3 instructions:   19000001 cycles:    6984291 heartbeat IPC: 2.53842 cumulative IPC: 2.72039 (Simulation time: 0 hr 1 min 57 sec) 
Heartbeat CPU  2 instructions:   19000000 cycles:    7071747 heartbeat IPC: 3.06477 cumulative IPC: 2.68675 (Simulation time: 0 hr 1 min 58 sec) 
Heartbeat CPU  0 instructions:   18000001 cycles:    7204366 heartbeat IPC: 1.84041 cumulative IPC: 2.49849 (Simulation time: 0 hr 2 min 0 sec) 
Heartbeat CPU  3 instructions:   20000000 cycles:    7369150 heartbeat IPC: 2.59835 cumulative IPC: 2.71402 (Simulation time: 0 hr 2 min 2 sec) 
Heartbeat CPU  2 instructions:   20000000 cycles:    7394079 heartbeat IPC: 3.10239 cumulative IPC: 2.70487 (Simulation time: 0 hr 2 min 3 sec) 
Heartbeat CPU  0 instructions:   19000000 cycles:    7661000 heartbeat IPC: 2.18994 cumulative IPC: 2.48009 (Simulation time: 0 hr 2 min 6 sec) 
Heartbeat CPU  2 instructions:   21000002 cycles:    7719427 heartbeat IPC: 3.07364 cumulative IPC: 2.72041 (Simulation time: 0 hr 2 min 7 sec) 
Heartbeat CPU  1 instructions:   19000000 cycles:    7728025 heartbeat IPC: 1.09390 cumulative IPC: 2.45858 (Simulation time: 0 hr 2 min 7 sec) 
Heartbeat CPU  3 instructions:   21000003 cycles:    7736196 heartbeat IPC: 2.72446 cumulative IPC: 2.71451 (Simulation time: 0 hr 2 min 8 sec) 
Heartbeat CPU  2 instructions:   22000001 cycles:    8040449 heartbeat IPC: 3.11505 cumulative IPC: 2.73617 (Simulation time: 0 hr 2 min 12 sec) 
Heartbeat CPU  0 instructions:   20000000 cycles:    8064684 heartbeat IPC: 2.47719 cumulative IPC: 2.47995 (Simulation time: 0 hr 2 min 13 sec) 
Heartbeat CPU  3 instructions:   22000003 cycles:    8078927 heartbeat IPC: 2.91774 cumulative IPC: 2.72313 (Simulation time: 0 hr 2 min 13 sec) 
Heartbeat CPU  2 instructions:   23000001 cycles:    8366767 heartbeat IPC: 3.06450 cumulative IPC: 2.74897 (Simulation time: 0 hr 2 min 17 sec) 
Heartbeat CPU  3 instructions:   23000000 cycles:    8409483 heartbeat IPC: 3.02520 cumulative IPC: 2.73501 (Simulation time: 0 hr 2 min 17 sec) 
Heartbeat CPU  0 instructions:   21000000 cycles:    8546671 heartbeat IPC: 2.07474 cumulative IPC: 2.45710 (Simulation time: 0 hr 2 min 19 sec) 
Heartbeat CPU  1 instructions:   20000000 cycles:    8641327 heartbeat IPC: 1.09493 cumulative IPC: 2.31446 (Simulation time: 0 hr 2 min 21 sec) 
Heartbeat CPU  3 instructions:   24000000 cycles:    8783172 heartbeat IPC: 2.67602 cumulative IPC: 2.73250 (Simulation time: 0 hr 2 min 22 sec) 
Heartbeat CPU  2 instructions:   24000000 cycles:    8865430 heartbeat IPC: 2.00536 cumulative IPC: 2.70714 (Simulation time: 0 hr 2 min 24 sec) 
Heartbeat CPU  0 instructions:   22000000 cycles:    9089787 heartbeat IPC: 1.84123 cumulative IPC: 2.42030 (Simulation time: 0 hr 2 min 27 sec) 
Heartbeat CPU  1 instructions:   21000001 cycles:    9135993 heartbeat IPC: 2.02157 cumulative IPC: 2.29860 (Simulation time: 0 hr 2 min 28 sec) 
Heartbeat CPU  2 instructions:   25000003 cycles:    9203974 heartbeat IPC: 2.95383 cumulative IPC: 2.71622 (Simulation time: 0 hr 2 min 29 sec) 
Heartbeat CPU  3 instructions:   25000003 cycles:    9231111 heartbeat IPC: 2.23245 cumulative IPC: 2.70823 (Simulation time: 0 hr 2 min 30 sec) 
Heartbeat CPU  0 instructions:   23000003 cycles:    9431035 heartbeat IPC: 2.93043 cumulative IPC: 2.43876 (Simulation time: 0 hr 2 min 33 sec) 
Heartbeat CPU  1 instructions:   22000002 cycles:    9472348 heartbeat IPC: 2.97305 cumulative IPC: 2.32255 (Simulation time: 0 hr 2 min 34 sec) 
Heartbeat CPU  3 instructions:   26000002 cycles:    9571089 heartbeat IPC: 2.94136 cumulative IPC: 2.71651 (Simulation time: 0 hr 2 min 36 sec) 
Heartbeat CPU  2 instructions:   26000000 cycles:    9582065 heartbeat IPC: 2.64486 cumulative IPC: 2.71340 (Simulation time: 0 hr 2 min 36 sec) 
Heartbeat CPU  0 instructions:   24000000 cycles:    9759182 heartbeat IPC: 3.04741 cumulative IPC: 2.45922 (Simulation time: 0 hr 2 min 39 sec) 
Heartbeat CPU  1 instructions:   23000002 cycles:    9790881 heartbeat IPC: 3.13939 cumulative IPC: 2.34912 (Simulation time: 0 hr 2 min 40 sec) 
Heartbeat CPU  3 instructions:   27000000 cycles:    9904209 heartbeat IPC: 3.00192 cumulative IPC: 2.72611 (Simulation time: 0 hr 2 min 42 sec) 
Heartbeat CPU  2 instructions:   27000000 cycles:    9956439 heartbeat IPC: 2.67113 cumulative IPC: 2.71181 (Simulation time: 0 hr 2 min 43 sec) 
Heartbeat CPU  0 instructions:   25000000 cycles:   10087072 heartbeat IPC: 3.04980 cumulative IPC: 2.47842 (Simulation time: 0 hr 2 min 45 sec) 
Heartbeat CPU  1 instructions:   24000000 cycles:   10113237 heartbeat IPC: 3.10215 cumulative IPC: 2.37313 (Simulation time: 0 hr 2 min 46 sec) 
Heartbeat CPU  3 instructions:   28000000 cycles:   10232217 heartbeat IPC: 3.04871 cumulative IPC: 2.73645 (Simulation time: 0 hr 2 min 48 sec) 
Heartbeat CPU  2 instructions:   28000000 cycles:   10341762 heartbeat IPC: 2.59523 cumulative IPC: 2.70747 (Simulation time: 0 hr 2 min 50 sec) 
Heartbeat CPU  1 instructions:   25000003 cycles:   10424765 heartbeat IPC: 3.20999 cumulative IPC: 2.39814 (Simulation time: 0 hr 2 min 52 sec) 
Heartbeat CPU  0 instructions:   26000000 cycles:   10564369 heartbeat IPC: 2.09513 cumulative IPC: 2.46110 (Simulation time: 0 hr 2 min 53 sec) 
Heartbeat CPU  3 instructions:   29000003 cycles:   10613681 heartbeat IPC: 2.62149 cumulative IPC: 2.73232 (Simulation time: 0 hr 2 min 54 sec) 
Heartbeat CPU  2 instructions:   29000003 cycles:   10676468 heartbeat IPC: 2.98771 cumulative IPC: 2.71625 (Simulation time: 0 hr 2 min 55 sec) 
Heartbeat CPU  1 instructions:   26000002 cycles:   10898794 heartbeat IPC: 2.10957 cumulative IPC: 2.38559 (Simulation time: 0 hr 2 min 59 sec) 
Heartbeat CPU  0 instructions:   27000001 cycles:   10899252 heartbeat IPC: 2.98612 cumulative IPC: 2.47723 (Simulation time: 0 hr 2 min 59 sec) 
Heartbeat CPU  2 instructions:   30000000 cycles:   11006209 heartbeat IPC: 3.03267 cumulative IPC: 2.72573 (Simulation time: 0 hr 3 min 1 sec) 
Heartbeat CPU  3 instructions:   30000000 cycles:   11026102 heartbeat IPC: 2.42470 cumulative IPC: 2.72082 (Simulation time: 0 hr 3 min 2 sec) 
Heartbeat CPU  1 instructions:   27000001 cycles:   11224384 heartbeat IPC: 3.07134 cumulative IPC: 2.40548 (Simulation time: 0 hr 3 min 5 sec) 
Heartbeat CPU  0 instructions:   28000000 cycles:   11232408 heartbeat IPC: 3.00159 cumulative IPC: 2.49279 (Simulation time: 0 hr 3 min 6 sec) 
Heartbeat CPU  2 instructions:   31000001 cycles:   11334005 heartbeat IPC: 3.05068 cumulative IPC: 2.73513 (Simulation time: 0 hr 3 min 7 sec) 
Heartbeat CPU  3 instructions:   31000002 cycles:   11355246 heartbeat IPC: 3.03819 cumulative IPC: 2.73002 (Simulation time: 0 hr 3 min 8 sec) 
Heartbeat CPU  0 instructions:   29000003 cycles:   11563486 heartbeat IPC: 3.02045 cumulative IPC: 2.50789 (Simulation time: 0 hr 3 min 11 sec) 
Heartbeat CPU  3 instructions:   32000000 cycles:   11684334 heartbeat IPC: 3.03869 cumulative IPC: 2.73871 (Simulation time: 0 hr 3 min 13 sec) 
Heartbeat CPU  2 instructions:   32000000 cycles:   11695818 heartbeat IPC: 2.76386 cumulative IPC: 2.73602 (Simulation time: 0 hr 3 min 14 sec) 
Heartbeat CPU  1 instructions:   28000000 cycles:   11795809 heartbeat IPC: 1.75001 cumulative IPC: 2.37372 (Simulation time: 0 hr 3 min 15 sec) 
Heartbeat CPU  0 instructions:   30000000 cycles:   11900719 heartbeat IPC: 2.96530 cumulative IPC: 2.52086 (Simulation time: 0 hr 3 min 17 sec) 
Heartbeat CPU  2 instructions:   33000001 cycles:   12022168 heartbeat IPC: 3.06420 cumulative IPC: 2.74493 (Simulation time: 0 hr 3 min 19 sec) 
Heartbeat CPU  3 instructions:   33000000 cycles:   12073591 heartbeat IPC: 2.56900 cumulative IPC: 2.73324 (Simulation time: 0 hr 3 min 20 sec) 
Heartbeat CPU  1 instructions:   29000002 cycles:   12233771 heartbeat IPC: 2.28331 cumulative IPC: 2.37049 (Simulation time: 0 hr 3 min 23 sec) 
Heartbeat CPU  0 instructions:   31000003 cycles:   12296879 heartbeat IPC: 2.52424 cumulative IPC: 2.52097 (Simulation time: 0 hr 3 min 24 sec) 
Heartbeat CPU  2 instructions:   34000000 cycles:   12371074 heartbeat IPC: 2.86610 cumulative IPC: 2.74835 (Simulation time: 0 hr 3 min 25 sec) 
Heartbeat CPU  3 instructions:   34000000 cycles:   12550759 heartbeat IPC: 2.09570 cumulative IPC: 2.70900 (Simulation time: 0 hr 3 min 28 sec) 
Heartbeat CPU  0 instructions:   32000000 cycles:   12625776 heartbeat IPC: 3.04046 cumulative IPC: 2.53450 (Simulation time: 0 hr 3 min 30 sec) 
Heartbeat CPU  1 instructions:   30000002 cycles:   12634396 heartbeat IPC: 2.49610 cumulative IPC: 2.37447 (Simulation time: 0 hr 3 min 30 sec) 
Heartbeat CPU  2 instructions:   35000000 cycles:   12695422 heartbeat IPC: 3.08311 cumulative IPC: 2.75690 (Simulation time: 0 hr 3 min 31 sec) 
Heartbeat CPU  3 instructions:   35000003 cycles:   12943357 heartbeat IPC: 2.54714 cumulative IPC: 2.70409 (Simulation time: 0 hr 3 min 35 sec) 
Heartbeat CPU  0 instructions:   33000003 cycles:   12950727 heartbeat IPC: 3.07740 cumulative IPC: 2.54812 (Simulation time: 0 hr 3 min 35 sec) 
Heartbeat CPU  2 instructions:   36000000 cycles:   13061982 heartbeat IPC: 2.72807 cumulative IPC: 2.75609 (Simulation time: 0 hr 3 min 37 sec) 
Heartbeat CPU  1 instructions:   31000000 cycles:   13111312 heartbeat IPC: 2.09680 cumulative IPC: 2.36437 (Simulation time: 0 hr 3 min 38 sec) 
Heartbeat CPU  3 instructions:   36000000 cycles:   13270204 heartbeat IPC: 3.05953 cumulative IPC: 2.71284 (Simulation time: 0 hr 3 min 39 sec) 
Heartbeat CPU  0 instructions:   34000000 cycles:   13547373 heartbeat IPC: 1.67603 cumulative IPC: 2.50971 (Simulation time: 0 hr 3 min 42 sec) 
Heartbeat CPU  3 instructions:   37000000 cycles:   13602429 heartbeat IPC: 3.01001 cumulative IPC: 2.72010 (Simulation time: 0 hr 3 min 43 sec) 
Heartbeat CPU  2 instructions:   37000002 cycles:   13752816 heartbeat IPC: 1.44753 cumulative IPC: 2.69036 (Simulation time: 0 hr 3 min 45 sec) 
Heartbeat CPU  1 instructions:   32000000 cycles:   13773101 heartbeat IPC: 1.51106 cumulative IPC: 2.32337 (Simulation time: 0 hr 3 min 46 sec) 
Heartbeat CPU  3 instructions:   38000002 cycles:   13928169 heartbeat IPC: 3.06994 cumulative IPC: 2.72828 (Simulation time: 0 hr 3 min 48 sec) 
Heartbeat CPU  2 instructions:   38000002 cycles:   14110418 heartbeat IPC: 2.79640 cumulative IPC: 2.69305 (Simulation time: 0 hr 3 min 51 sec) 
Heartbeat CPU  1 instructions:   33000003 cycles:   14160454 heartbeat IPC: 2.58163 cumulative IPC: 2.33043 (Simulation time: 0 hr 3 min 52 sec) 
Heartbeat CPU  0 instructions:   35000001 cycles:   14160877 heartbeat IPC: 1.62998 cumulative IPC: 2.47160 (Simulation time: 0 hr 3 min 52 sec) 
Heartbeat CPU  3 instructions:   39000001 cycles:   14254183 heartbeat IPC: 3.06735 cumulative IPC: 2.73604 (Simulation time: 0 hr 3 min 53 sec) 
Heartbeat CPU  2 instructions:   39000002 cycles:   14439721 heartbeat IPC: 3.03672 cumulative IPC: 2.70088 (Simulation time: 0 hr 3 min 56 sec) 
Heartbeat CPU  3 instructions:   40000000 cycles:   14574532 heartbeat IPC: 3.12159 cumulative IPC: 2.74451 (Simulation time: 0 hr 3 min 57 sec) 
Heartbeat CPU  2 instructions:   40000000 cycles:   14768521 heartbeat IPC: 3.04136 cumulative IPC: 2.70846 (Simulation time: 0 hr 4 min 0 sec) 
Heartbeat CPU  1 instructions:   34000000 cycles:   14792436 heartbeat IPC: 1.58232 cumulative IPC: 2.29847 (Simulation time: 0 hr 4 min 0 sec) 
Heartbeat CPU  3 instructions:   41000001 cycles:   14907690 heartbeat IPC: 3.00158 cumulative IPC: 2.75026 (Simulation time: 0 hr 4 min 2 sec) 
Heartbeat CPU  0 instructions:   36000000 cycles:   15044263 heartbeat IPC: 1.13201 cumulative IPC: 2.39294 (Simulation time: 0 hr 4 min 4 sec) 
Heartbeat CPU  2 instructions:   41000000 cycles:   15097431 heartbeat IPC: 3.04035 cumulative IPC: 2.71569 (Simulation time: 0 hr 4 min 5 sec) 
Heartbeat CPU  3 instructions:   42000000 cycles:   15430239 heartbeat IPC: 1.91369 cumulative IPC: 2.72193 (Simulation time: 0 hr 4 min 8 sec) 
Heartbeat CPU  1 instructions:   35000000 cycles:   15440449 heartbeat IPC: 1.54318 cumulative IPC: 2.26677 (Simulation time: 0 hr 4 min 8 sec) 
Heartbeat CPU  2 instructions:   42000000 cycles:   15550583 heartbeat IPC: 2.20677 cumulative IPC: 2.70086 (Simulation time: 0 hr 4 min 9 sec) 
Heartbeat CPU  0 instructions:   37000001 cycles:   15779752 heartbeat IPC: 1.35964 cumulative IPC: 2.34478 (Simulation time: 0 hr 4 min 12 sec) 
Heartbeat CPU  3 instructions:   43000000 cycles:   15907295 heartbeat IPC: 2.09619 cumulative IPC: 2.70316 (Simulation time: 0 hr 4 min 13 sec) 
Heartbeat CPU  2 instructions:   43000001 cycles:   16109232 heartbeat IPC: 1.79003 cumulative IPC: 2.66928 (Simulation time: 0 hr 4 min 15 sec) 
Heartbeat CPU  0 instructions:   38000002 cycles:   16191087 heartbeat IPC: 2.43111 cumulative IPC: 2.34697 (Simulation time: 0 hr 4 min 17 sec) 
Heartbeat CPU  3 instructions:   44000000 cycles:   16369727 heartbeat IPC: 2.16248 cumulative IPC: 2.68789 (Simulation time: 0 hr 4 min 19 sec) 
Heartbeat CPU  1 instructions:   36000000 cycles:   16434910 heartbeat IPC: 1.00557 cumulative IPC: 2.19046 (Simulation time: 0 hr 4 min 19 sec) 
Heartbeat CPU  0 instructions:   39000000 cycles:   16606366 heartbeat IPC: 2.40801 cumulative IPC: 2.34850 (Simulation time: 0 hr 4 min 21 sec) 
Heartbeat CPU  2 instructions:   44000000 cycles:   16859997 heartbeat IPC: 1.33197 cumulative IPC: 2.60973 (Simulation time: 0 hr 4 min 24 sec) 
Heartbeat CPU  3 instructions:   45000001 cycles:   16955195 heartbeat IPC: 1.70804 cumulative IPC: 2.65405 (Simulation time: 0 hr 4 min 25 sec) 
Heartbeat CPU  1 instructions:   37000001 cycles:   16992428 heartbeat IPC: 1.79367 cumulative IPC: 2.17744 (Simulation time: 0 hr 4 min 26 sec) 
Heartbeat CPU  0 instructions:   40000000 cycles:   17135918 heartbeat IPC: 1.88839 cumulative IPC: 2.33428 (Simulation time: 0 hr 4 min 28 sec) 
Heartbeat CPU  2 instructions:   45000001 cycles:   17190603 heartbeat IPC: 3.02475 cumulative IPC: 2.61771 (Simulation time: 0 hr 4 min 29 sec) 
Heartbeat CPU  3 instructions:   46000001 cycles:   17280518 heartbeat IPC: 3.07387 cumulative IPC: 2.66196 (Simulation time: 0 hr 4 min 30 sec) 
Heartbeat CPU  0 instructions:   41000000 cycles:   17460754 heartbeat IPC: 3.07848 cumulative IPC: 2.34812 (Simulation time: 0 hr 4 min 33 sec) 
Heartbeat CPU  2 instructions:   46000002 cycles:   17592336 heartbeat IPC: 2.48922 cumulative IPC: 2.61478 (Simulation time: 0 hr 4 min 35 sec) 
Heartbeat CPU  3 instructions:   47000003 cycles:   17618560 heartbeat IPC: 2.95822 cumulative IPC: 2.66764 (Simulation time: 0 hr 4 min 35 sec) 
Heartbeat CPU  0 instructions:   42000000 cycles:   17825271 heartbeat IPC: 2.74336 cumulative IPC: 2.35621 (Simulation time: 0 hr 4 min 38 sec) 
Heartbeat CPU  1 instructions:   38000001 cycles:   17920351 heartbeat IPC: 1.07768 cumulative IPC: 2.12049 (Simulation time: 0 hr 4 min 39 sec) 
Heartbeat CPU  2 instructions:   47000000 cycles:   17992720 heartbeat IPC: 2.49760 cumulative IPC: 2.61217 (Simulation time: 0 hr 4 min 40 sec) 
Heartbeat CPU  3 instructions:   48000000 cycles:   18001208 heartbeat IPC: 2.61336 cumulative IPC: 2.66649 (Simulation time: 0 hr 4 min 40 sec) 
Heartbeat CPU  3 instructions:   49000003 cycles:   18329299 heartbeat IPC: 3.04794 cumulative IPC: 2.67332 (Simulation time: 0 hr 4 min 44 sec) 
Heartbeat CPU  2 instructions:   48000000 cycles:   18346938 heartbeat IPC: 2.82312 cumulative IPC: 2.61624 (Simulation time: 0 hr 4 min 44 sec) 
Heartbeat CPU  0 instructions:   43000000 cycles:   18651631 heartbeat IPC: 1.21013 cumulative IPC: 2.30543 (Simulation time: 0 hr 4 min 48 sec) 
Heartbeat CPU  3 instructions:   50000002 cycles:   18653184 heartbeat IPC: 3.08751 cumulative IPC: 2.68051 (Simulation time: 0 hr 4 min 48 sec) 
Heartbeat CPU  2 instructions:   49000003 cycles:   18674165 heartbeat IPC: 3.05599 cumulative IPC: 2.62395 (Simulation time: 0 hr 4 min 49 sec) 
Heartbeat CPU  1 instructions:   39000000 cycles:   18714440 heartbeat IPC: 1.25930 cumulative IPC: 2.08395 (Simulation time: 0 hr 4 min 49 sec) 
Heartbeat CPU  3 instructions:   51000001 cycles:   18972532 heartbeat IPC: 3.13138 cumulative IPC: 0.05271 (Simulation time: 0 hr 4 min 53 sec) 
Heartbeat CPU  2 instructions:   50000001 cycles:   19009973 heartbeat IPC: 2.97789 cumulative IPC: 2.63020 (Simulation time: 0 hr 4 min 54 sec) 
Heartbeat CPU  1 instructions:   40000000 cycles:   19262221 heartbeat IPC: 1.82555 cumulative IPC: 2.07660 (Simulation time: 0 hr 4 min 57 sec) 
Heartbeat CPU  3 instructions:   52000000 cycles:   19299124 heartbeat IPC: 3.06192 cumulative IPC: 0.10363 (Simulation time: 0 hr 4 min 58 sec) 
Heartbeat CPU  0 instructions:   44000000 cycles:   19348106 heartbeat IPC: 1.43580 cumulative IPC: 2.27412 (Simulation time: 0 hr 4 min 59 sec) 
Heartbeat CPU  2 instructions:   51000000 cycles:   19383159 heartbeat IPC: 2.67963 cumulative IPC: 0.05159 (Simulation time: 0 hr 4 min 59 sec) 
Heartbeat CPU  1 instructions:   41000000 cycles:   19596169 heartbeat IPC: 2.99448 cumulative IPC: 2.09225 (Simulation time: 0 hr 5 min 3 sec) 
Heartbeat CPU  3 instructions:   53000000 cycles:   19627109 heartbeat IPC: 3.04892 cumulative IPC: 0.15285 (Simulation time: 0 hr 5 min 3 sec) 
Heartbeat CPU  2 instructions:   52000000 cycles:   19711009 heartbeat IPC: 3.05018 cumulative IPC: 0.10147 (Simulation time: 0 hr 5 min 5 sec) 
Heartbeat CPU  1 instructions:   42000001 cycles:   19958438 heartbeat IPC: 2.76038 cumulative IPC: 2.10437 (Simulation time: 0 hr 5 min 8 sec) 
Heartbeat CPU  3 instructions:   54000001 cycles:   19992957 heartbeat IPC: 2.73338 cumulative IPC: 0.20007 (Simulation time: 0 hr 5 min 9 sec) 
Heartbeat CPU  0 instructions:   45000003 cycles:   20031190 heartbeat IPC: 1.46395 cumulative IPC: 2.24650 (Simulation time: 0 hr 5 min 9 sec) 
Heartbeat CPU  2 instructions:   53000002 cycles:   20038048 heartbeat IPC: 3.05775 cumulative IPC: 0.14972 (Simulation time: 0 hr 5 min 9 sec) 
Heartbeat CPU  3 instructions:   55000000 cycles:   20420530 heartbeat IPC: 2.33878 cumulative IPC: 0.24485 (Simulation time: 0 hr 5 min 14 sec) 
Heartbeat CPU  2 instructions:   54000000 cycles:   20454653 heartbeat IPC: 2.40035 cumulative IPC: 0.19555 (Simulation time: 0 hr 5 min 15 sec) 
Heartbeat CPU  0 instructions:   46000001 cycles:   20534112 heartbeat IPC: 1.98838 cumulative IPC: 2.24017 (Simulation time: 0 hr 5 min 16 sec) 
Heartbeat CPU  1 instructions:   43000002 cycles:   20903871 heartbeat IPC: 1.05772 cumulative IPC: 2.05704 (Simulation time: 0 hr 5 min 20 sec) 
Heartbeat CPU  0 instructions:   47000001 cycles:   20915997 heartbeat IPC: 2.61859 cumulative IPC: 2.24708 (Simulation time: 0 hr 5 min 20 sec) 
Heartbeat CPU  2 instructions:   55000000 cycles:   21036606 heartbeat IPC: 1.71835 cumulative IPC: 0.23768 (Simulation time: 0 hr 5 min 21 sec) 
Heartbeat CPU  3 instructions:   56000000 cycles:   21109910 heartbeat IPC: 1.45058 cumulative IPC: 0.28423 (Simulation time: 0 hr 5 min 22 sec) 
Heartbeat CPU  0 instructions:   48000000 cycles:   21329881 heartbeat IPC: 2.41613 cumulative IPC: 2.25036 (Simulation time: 0 hr 5 min 25 sec) 
Heartbeat CPU  3 instructions:   57000000 cycles:   21521066 heartbeat IPC: 2.43217 cumulative IPC: 0.32526 (Simulation time: 0 hr 5 min 27 sec) 
Heartbeat CPU  1 instructions:   44000000 cycles:   21545180 heartbeat IPC: 1.55931 cumulative IPC: 2.04222 (Simulation time: 0 hr 5 min 28 sec) 
Heartbeat CPU  2 instructions:   56000000 cycles:   21581153 heartbeat IPC: 1.83639 cumulative IPC: 0.27802 (Simulation time: 0 hr 5 min 28 sec) 
Heartbeat CPU  0 instructions:   49000003 cycles:   21657168 heartbeat IPC: 3.05543 cumulative IPC: 2.26253 (Simulation time: 0 hr 5 min 29 sec) 
Heartbeat CPU  2 instructions:   57000001 cycles:   21960731 heartbeat IPC: 2.63451 cumulative IPC: 0.31875 (Simulation time: 0 hr 5 min 33 sec) 
Heartbeat CPU  3 instructions:   58000000 cycles:   22074112 heartbeat IPC: 1.80817 cumulative IPC: 0.36242 (Simulation time: 0 hr 5 min 35 sec) 
Heartbeat CPU  0 instructions:   50000000 cycles:   22128492 heartbeat IPC: 2.12168 cumulative IPC: 2.25953 (Simulation time: 0 hr 5 min 35 sec) 
Heartbeat CPU  1 instructions:   45000003 cycles:   22342165 heartbeat IPC: 1.25473 cumulative IPC: 2.01413 (Simulation time: 0 hr 5 min 37 sec) 
Heartbeat CPU  2 instructions:   58000001 cycles:   22532230 heartbeat IPC: 1.74978 cumulative IPC: 0.35505 (Simulation time: 0 hr 5 min 40 sec) 
Heartbeat CPU  0 instructions:   51000000 cycles:   22555893 heartbeat IPC: 2.33972 cumulative IPC: 0.04433 (Simulation time: 0 hr 5 min 40 sec) 
Heartbeat CPU  3 instructions:   59000000 cycles:   22704048 heartbeat IPC: 1.58746 cumulative IPC: 0.39641 (Simulation time: 0 hr 5 min 41 sec) 
Heartbeat CPU  0 instructions:   52000000 cycles:   22880218 heartbeat IPC: 3.08333 cumulative IPC: 0.08741 (Simulation time: 0 hr 5 min 44 sec) 
Heartbeat CPU  1 instructions:   46000001 cycles:   22996559 heartbeat IPC: 1.52813 cumulative IPC: 2.00030 (Simulation time: 0 hr 5 min 45 sec) 
Heartbeat CPU  2 instructions:   59000002 cycles:   23161122 heartbeat IPC: 1.59010 cumulative IPC: 0.38858 (Simulation time: 0 hr 5 min 48 sec) 
Heartbeat CPU  0 instructions:   53000002 cycles:   23204033 heartbeat IPC: 3.08819 cumulative IPC: 0.12929 (Simulation time: 0 hr 5 min 48 sec) 
Heartbeat CPU  3 instructions:   60000000 cycles:   23211673 heartbeat IPC: 1.96996 cumulative IPC: 0.43082 (Simulation time: 0 hr 5 min 49 sec) 
Heartbeat CPU  1 instructions:   47000003 cycles:   23326106 heartbeat IPC: 3.03447 cumulative IPC: 2.01491 (Simulation time: 0 hr 5 min 50 sec) 
Heartbeat CPU  0 instructions:   54000000 cycles:   23625699 heartbeat IPC: 2.37154 cumulative IPC: 0.16931 (Simulation time: 0 hr 5 min 54 sec) 
Heartbeat CPU  1 instructions:   48000000 cycles:   23655634 heartbeat IPC: 3.03463 cumulative IPC: 2.02911 (Simulation time: 0 hr 5 min 55 sec) 
Heartbeat CPU  2 instructions:   60000000 cycles:   23681532 heartbeat IPC: 1.92156 cumulative IPC: 0.42227 (Simulation time: 0 hr 5 min 55 sec) 
Heartbeat CPU  3 instructions:   61000002 cycles:   23739726 heartbeat IPC: 1.89375 cumulative IPC: 0.46336 (Simulation time: 0 hr 5 min 56 sec) 
Heartbeat CPU  1 instructions:   49000000 cycles:   23981282 heartbeat IPC: 3.07080 cumulative IPC: 2.04326 (Simulation time: 0 hr 6 min 0 sec) 
Heartbeat CPU  0 instructions:   55000001 cycles:   23986437 heartbeat IPC: 2.77210 cumulative IPC: 0.20845 (Simulation time: 0 hr 6 min 0 sec) 
Heartbeat CPU  2 instructions:   61000002 cycles:   24226087 heartbeat IPC: 1.83637 cumulative IPC: 0.45406 (Simulation time: 0 hr 6 min 3 sec) 
Heartbeat CPU  1 instructions:   50000002 cycles:   24305862 heartbeat IPC: 3.08091 cumulative IPC: 2.05712 (Simulation time: 0 hr 6 min 4 sec) 

Warmup complete CPU  0 instructions:   55717146 cycles:   24305861 (Simulation time: 0 hr 6 min 4 sec) 
Warmup complete CPU  1 instructions:   50000002 cycles:   24305862 (Simulation time: 0 hr 6 min 4 sec) 
Warmup complete CPU  2 instructions:   61160648 cycles:   24305862 (Simulation time: 0 hr 6 min 4 sec) 
Warmup complete CPU  3 instructions:   61834529 cycles:   24305861 (Simulation time: 0 hr 6 min 4 sec) 

Heartbeat CPU  3 instructions:   62000000 cycles:   24616199 heartbeat IPC: 1.14093 cumulative IPC: 0.53320 (Simulation time: 0 hr 6 min 5 sec) 
Heartbeat CPU  0 instructions:   56000000 cycles:   25149212 heartbeat IPC: 0.86001 cumulative IPC: 0.33539 (Simulation time: 0 hr 6 min 6 sec) 
Heartbeat CPU  2 instructions:   62000002 cycles:   26826430 heartbeat IPC: 0.38456 cumulative IPC: 0.33300 (Simulation time: 0 hr 6 min 11 sec) 
Heartbeat CPU  0 instructions:   57000000 cycles:   27862157 heartbeat IPC: 0.36860 cumulative IPC: 0.36073 (Simulation time: 0 hr 6 min 14 sec) 
Heartbeat CPU  1 instructions:   51000003 cycles:   28111216 heartbeat IPC: 0.26279 cumulative IPC: 0.26279 (Simulation time: 0 hr 6 min 14 sec) 
Heartbeat CPU  3 instructions:   63000000 cycles:   28485738 heartbeat IPC: 0.25843 cumulative IPC: 0.27883 (Simulation time: 0 hr 6 min 15 sec) 
Heartbeat CPU  1 instructions:   52000000 cycles:   29758584 heartbeat IPC: 0.60703 cumulative IPC: 0.36679 (Simulation time: 0 hr 6 min 18 sec) 
Heartbeat CPU  0 instructions:   58000002 cycles:   30686483 heartbeat IPC: 0.35407 cumulative IPC: 0.35778 (Simulation time: 0 hr 6 min 21 sec) 
Heartbeat CPU  2 instructions:   63000000 cycles:   30918073 heartbeat IPC: 0.24440 cumulative IPC: 0.27818 (Simulation time: 0 hr 6 min 22 sec) 
Heartbeat CPU  1 instructions:   53000003 cycles:   32275894 heartbeat IPC: 0.39725 cumulative IPC: 0.37641 (Simulation time: 0 hr 6 min 25 sec) 
Heartbeat CPU  0 instructions:   59000002 cycles:   32772470 heartbeat IPC: 0.47939 cumulative IPC: 0.38774 (Simulation time: 0 hr 6 min 26 sec) 
Heartbeat CPU  1 instructions:   54000003 cycles:   35656101 heartbeat IPC: 0.29584 cumulative IPC: 0.35242 (Simulation time: 0 hr 6 min 32 sec) 
Heartbeat CPU  2 instructions:   64000000 cycles:   35856185 heartbeat IPC: 0.20251 cumulative IPC: 0.24582 (Simulation time: 0 hr 6 min 32 sec) 
Heartbeat CPU  3 instructions:   64000000 cycles:   35901155 heartbeat IPC: 0.13485 cumulative IPC: 0.18675 (Simulation time: 0 hr 6 min 32 sec) 
Heartbeat CPU  0 instructions:   60000000 cycles:   37859518 heartbeat IPC: 0.19658 cumulative IPC: 0.31599 (Simulation time: 0 hr 6 min 36 sec) 
Heartbeat CPU  1 instructions:   55000003 cycles:   38448719 heartbeat IPC: 0.35809 cumulative IPC: 0.35354 (Simulation time: 0 hr 6 min 37 sec) 
Heartbeat CPU  3 instructions:   65000000 cycles:   40934648 heartbeat IPC: 0.19867 cumulative IPC: 0.19036 (Simulation time: 0 hr 6 min 42 sec) 
Heartbeat CPU  2 instructions:   65000002 cycles:   41586421 heartbeat IPC: 0.17451 cumulative IPC: 0.22218 (Simulation time: 0 hr 6 min 44 sec) 
Heartbeat CPU  1 instructions:   56000000 cycles:   42500428 heartbeat IPC: 0.24681 cumulative IPC: 0.32977 (Simulation time: 0 hr 6 min 46 sec) 
Heartbeat CPU  0 instructions:   61000003 cycles:   42525956 heartbeat IPC: 0.21430 cumulative IPC: 0.28995 (Simulation time: 0 hr 6 min 46 sec) 
Heartbeat CPU  1 instructions:   57000001 cycles:   45006879 heartbeat IPC: 0.39897 cumulative IPC: 0.33815 (Simulation time: 0 hr 6 min 52 sec) 
Heartbeat CPU  3 instructions:   66000000 cycles:   45856363 heartbeat IPC: 0.20318 cumulative IPC: 0.19329 (Simulation time: 0 hr 6 min 54 sec) 
Heartbeat CPU  0 instructions:   62000001 cycles:   46377399 heartbeat IPC: 0.25964 cumulative IPC: 0.28466 (Simulation time: 0 hr 6 min 55 sec) 
Heartbeat CPU  2 instructions:   66000000 cycles:   47090206 heartbeat IPC: 0.18169 cumulative IPC: 0.21240 (Simulation time: 0 hr 6 min 57 sec) 
Heartbeat CPU  1 instructions:   58000002 cycles:   47894359 heartbeat IPC: 0.34632 cumulative IPC: 0.33915 (Simulation time: 0 hr 7 min 0 sec) 
Heartbeat CPU  0 instructions:   63000000 cycles:   49563706 heartbeat IPC: 0.31384 cumulative IPC: 0.28834 (Simulation time: 0 hr 7 min 4 sec) 
Heartbeat CPU  3 instructions:   67000000 cycles:   51308980 heartbeat IPC: 0.18340 cumulative IPC: 0.19129 (Simulation time: 0 hr 7 min 8 sec) 
Heartbeat CPU  1 instructions:   59000001 cycles:   51800957 heartbeat IPC: 0.25598 cumulative IPC: 0.32733 (Simulation time: 0 hr 7 min 9 sec) 
Heartbeat CPU  2 instructions:   67000002 cycles:   53058481 heartbeat IPC: 0.16755 cumulative IPC: 0.20309 (Simulation time: 0 hr 7 min 11 sec) 
Heartbeat CPU  0 instructions:   64000000 cycles:   53269502 heartbeat IPC: 0.26985 cumulative IPC: 0.28597 (Simulation time: 0 hr 7 min 12 sec) 
Heartbeat CPU  1 instructions:   60000000 cycles:   56959565 heartbeat IPC: 0.19385 cumulative IPC: 0.30624 (Simulation time: 0 hr 7 min 17 sec) 
Heartbeat CPU  3 instructions:   68000000 cycles:   58110299 heartbeat IPC: 0.14703 cumulative IPC: 0.18239 (Simulation time: 0 hr 7 min 19 sec) 
Heartbeat CPU  2 instructions:   68000000 cycles:   58317482 heartbeat IPC: 0.19015 cumulative IPC: 0.20109 (Simulation time: 0 hr 7 min 20 sec) 
Heartbeat CPU  0 instructions:   65000000 cycles:   59118047 heartbeat IPC: 0.17098 cumulative IPC: 0.26666 (Simulation time: 0 hr 7 min 21 sec) 
Heartbeat CPU  1 instructions:   61000003 cycles:   61830007 heartbeat IPC: 0.20532 cumulative IPC: 0.29314 (Simulation time: 0 hr 7 min 26 sec) 
Heartbeat CPU  0 instructions:   66000002 cycles:   63223714 heartbeat IPC: 0.24357 cumulative IPC: 0.26422 (Simulation time: 0 hr 7 min 29 sec) 
Heartbeat CPU  3 instructions:   69000000 cycles:   63908377 heartbeat IPC: 0.17247 cumulative IPC: 0.18093 (Simulation time: 0 hr 7 min 31 sec) 
Heartbeat CPU  2 instructions:   69000000 cycles:   64358651 heartbeat IPC: 0.16553 cumulative IPC: 0.19573 (Simulation time: 0 hr 7 min 32 sec) 
Heartbeat CPU  1 instructions:   62000003 cycles:   65829992 heartbeat IPC: 0.25000 cumulative IPC: 0.28899 (Simulation time: 0 hr 7 min 35 sec) 
Heartbeat CPU  0 instructions:   67000001 cycles:   68559245 heartbeat IPC: 0.18742 cumulative IPC: 0.25496 (Simulation time: 0 hr 7 min 40 sec) 
Heartbeat CPU  3 instructions:   70000000 cycles:   69014928 heartbeat IPC: 0.19583 cumulative IPC: 0.18264 (Simulation time: 0 hr 7 min 41 sec) 
Heartbeat CPU  1 instructions:   63000002 cycles:   69364375 heartbeat IPC: 0.28293 cumulative IPC: 0.28851 (Simulation time: 0 hr 7 min 42 sec) 
Heartbeat CPU  2 instructions:   70000000 cycles:   72358918 heartbeat IPC: 0.12500 cumulative IPC: 0.18395 (Simulation time: 0 hr 7 min 46 sec) 
Heartbeat CPU  0 instructions:   68000000 cycles:   72942579 heartbeat IPC: 0.22814 cumulative IPC: 0.25254 (Simulation time: 0 hr 7 min 47 sec) 
Heartbeat CPU  3 instructions:   71000003 cycles:   75232000 heartbeat IPC: 0.16085 cumulative IPC: 0.17998 (Simulation time: 0 hr 7 min 51 sec) 
Heartbeat CPU  0 instructions:   69000002 cycles:   77078211 heartbeat IPC: 0.24180 cumulative IPC: 0.25170 (Simulation time: 0 hr 7 min 54 sec) 
Heartbeat CPU  1 instructions:   64000000 cycles:   77393951 heartbeat IPC: 0.12454 cumulative IPC: 0.26371 (Simulation time: 0 hr 7 min 55 sec) 
Heartbeat CPU  2 instructions:   71000003 cycles:   77526821 heartbeat IPC: 0.19350 cumulative IPC: 0.18488 (Simulation time: 0 hr 7 min 55 sec) 
Heartbeat CPU  3 instructions:   72000000 cycles:   81897826 heartbeat IPC: 0.15002 cumulative IPC: 0.17651 (Simulation time: 0 hr 8 min 2 sec) 
Heartbeat CPU  2 instructions:   72000000 cycles:   82829176 heartbeat IPC: 0.18859 cumulative IPC: 0.18521 (Simulation time: 0 hr 8 min 4 sec) 
Heartbeat CPU  0 instructions:   70000002 cycles:   82934363 heartbeat IPC: 0.17076 cumulative IPC: 0.24362 (Simulation time: 0 hr 8 min 4 sec) 
Heartbeat CPU  1 instructions:   65000002 cycles:   84219133 heartbeat IPC: 0.14652 cumulative IPC: 0.25036 (Simulation time: 0 hr 8 min 6 sec) 
Heartbeat CPU  2 instructions:   73000000 cycles:   87584794 heartbeat IPC: 0.21028 cumulative IPC: 0.18710 (Simulation time: 0 hr 8 min 11 sec) 
Heartbeat CPU  3 instructions:   73000000 cycles:   88069048 heartbeat IPC: 0.16204 cumulative IPC: 0.17511 (Simulation time: 0 hr 8 min 12 sec) 
Heartbeat CPU  0 instructions:   71000003 cycles:   89615639 heartbeat IPC: 0.14967 cumulative IPC: 0.23401 (Simulation time: 0 hr 8 min 14 sec) 
Heartbeat CPU  1 instructions:   66000003 cycles:   89912691 heartbeat IPC: 0.17564 cumulative IPC: 0.24388 (Simulation time: 0 hr 8 min 15 sec) 
Heartbeat CPU  2 instructions:   74000003 cycles:   91911467 heartbeat IPC: 0.23113 cumulative IPC: 0.18992 (Simulation time: 0 hr 8 min 18 sec) 
Heartbeat CPU  3 instructions:   74000001 cycles:   94527667 heartbeat IPC: 0.15483 cumulative IPC: 0.17324 (Simulation time: 0 hr 8 min 23 sec) 
Heartbeat CPU  1 instructions:   67000003 cycles:   95859739 heartbeat IPC: 0.16815 cumulative IPC: 0.23758 (Simulation time: 0 hr 8 min 25 sec) 
Heartbeat CPU  0 instructions:   72000000 cycles:   95986249 heartbeat IPC: 0.15697 cumulative IPC: 0.22716 (Simulation time: 0 hr 8 min 26 sec) 
Heartbeat CPU  2 instructions:   75000002 cycles:   96292430 heartbeat IPC: 0.22826 cumulative IPC: 0.19225 (Simulation time: 0 hr 8 min 26 sec) 
Heartbeat CPU  3 instructions:   75000002 cycles:   99384652 heartbeat IPC: 0.20589 cumulative IPC: 0.17536 (Simulation time: 0 hr 8 min 32 sec) 
Heartbeat CPU  2 instructions:   76000000 cycles:   99835141 heartbeat IPC: 0.28227 cumulative IPC: 0.19647 (Simulation time: 0 hr 8 min 33 sec) 
Heartbeat CPU  0 instructions:   73000001 cycles:  100748543 heartbeat IPC: 0.20998 cumulative IPC: 0.22609 (Simulation time: 0 hr 8 min 35 sec) 
Heartbeat CPU  1 instructions:   68000000 cycles:  100888269 heartbeat IPC: 0.19886 cumulative IPC: 0.23504 (Simulation time: 0 hr 8 min 36 sec) 
Heartbeat CPU  3 instructions:   76000000 cycles:  102176986 heartbeat IPC: 0.35812 cumulative IPC: 0.18191 (Simulation time: 0 hr 8 min 38 sec) 
Heartbeat CPU  2 instructions:   77000000 cycles:  104063988 heartbeat IPC: 0.23647 cumulative IPC: 0.19859 (Simulation time: 0 hr 8 min 42 sec) 
Heartbeat CPU  3 instructions:   77000001 cycles:  105760631 heartbeat IPC: 0.27905 cumulative IPC: 0.18618 (Simulation time: 0 hr 8 min 45 sec) 
Heartbeat CPU  0 instructions:   74000001 cycles:  105872742 heartbeat IPC: 0.19515 cumulative IPC: 0.22415 (Simulation time: 0 hr 8 min 45 sec) 
Heartbeat CPU  1 instructions:   69000000 cycles:  107727819 heartbeat IPC: 0.14621 cumulative IPC: 0.22776 (Simulation time: 0 hr 8 min 48 sec) 
Heartbeat CPU  2 instructions:   78000002 cycles:  108557687 heartbeat IPC: 0.22253 cumulative IPC: 0.19987 (Simulation time: 0 hr 8 min 50 sec) 
Heartbeat CPU  0 instructions:   75000001 cycles:  109518414 heartbeat IPC: 0.27430 cumulative IPC: 0.22629 (Simulation time: 0 hr 8 min 52 sec) 
Heartbeat CPU  2 instructions:   79000003 cycles:  109996726 heartbeat IPC: 0.69491 cumulative IPC: 0.20818 (Simulation time: 0 hr 8 min 54 sec) 
Heartbeat CPU  3 instructions:   78000003 cycles:  110444717 heartbeat IPC: 0.21349 cumulative IPC: 0.18767 (Simulation time: 0 hr 8 min 56 sec) 
Heartbeat CPU  2 instructions:   80000000 cycles:  110655083 heartbeat IPC: 1.51893 cumulative IPC: 0.21818 (Simulation time: 0 hr 8 min 57 sec) 
Heartbeat CPU  3 instructions:   79000002 cycles:  112932710 heartbeat IPC: 0.40193 cumulative IPC: 0.19368 (Simulation time: 0 hr 9 min 3 sec) 
Heartbeat CPU  0 instructions:   76000000 cycles:  113154245 heartbeat IPC: 0.27504 cumulative IPC: 0.22829 (Simulation time: 0 hr 9 min 4 sec) 
Heartbeat CPU  2 instructions:   81000002 cycles:  113357935 heartbeat IPC: 0.36998 cumulative IPC: 0.22278 (Simulation time: 0 hr 9 min 5 sec) 
Heartbeat CPU  3 instructions:   80000000 cycles:  113590146 heartbeat IPC: 1.52106 cumulative IPC: 0.20346 (Simulation time: 0 hr 9 min 6 sec) 
Heartbeat CPU  1 instructions:   70000000 cycles:  114343124 heartbeat IPC: 0.15116 cumulative IPC: 0.22213 (Simulation time: 0 hr 9 min 8 sec) 
Heartbeat CPU  2 instructions:   82000001 cycles:  116441020 heartbeat IPC: 0.32435 cumulative IPC: 0.22618 (Simulation time: 0 hr 9 min 13 sec) 
Heartbeat CPU  3 instructions:   81000002 cycles:  116565978 heartbeat IPC: 0.33604 cumulative IPC: 0.20773 (Simulation time: 0 hr 9 min 14 sec) 
Heartbeat CPU  0 instructions:   77000001 cycles:  117438250 heartbeat IPC: 0.23343 cumulative IPC: 0.22852 (Simulation time: 0 hr 9 min 16 sec) 
Heartbeat CPU  2 instructions:   83000002 cycles:  119173431 heartbeat IPC: 0.36598 cumulative IPC: 0.23021 (Simulation time: 0 hr 9 min 20 sec) 
Heartbeat CPU  3 instructions:   82000000 cycles:  119257385 heartbeat IPC: 0.37155 cumulative IPC: 0.21238 (Simulation time: 0 hr 9 min 20 sec) 
Heartbeat CPU  1 instructions:   71000002 cycles:  121129483 heartbeat IPC: 0.14735 cumulative IPC: 0.21689 (Simulation time: 0 hr 9 min 25 sec) 
Heartbeat CPU  0 instructions:   78000000 cycles:  121739604 heartbeat IPC: 0.23248 cumulative IPC: 0.22870 (Simulation time: 0 hr 9 min 27 sec) 
Heartbeat CPU  2 instructions:   84000000 cycles:  121861459 heartbeat IPC: 0.37202 cumulative IPC: 0.23412 (Simulation time: 0 hr 9 min 27 sec) 
Heartbeat CPU  3 instructions:   83000002 cycles:  121945897 heartbeat IPC: 0.37195 cumulative IPC: 0.21677 (Simulation time: 0 hr 9 min 27 sec) 
Heartbeat CPU  0 instructions:   79000002 cycles:  123281525 heartbeat IPC: 0.64854 cumulative IPC: 0.23524 (Simulation time: 0 hr 9 min 31 sec) 
Heartbeat CPU  0 instructions:   80000000 cycles:  123982887 heartbeat IPC: 1.42579 cumulative IPC: 0.24362 (Simulation time: 0 hr 9 min 34 sec) 
Heartbeat CPU  2 instructions:   85000000 cycles:  124871329 heartbeat IPC: 0.33224 cumulative IPC: 0.23705 (Simulation time: 0 hr 9 min 36 sec) 
Heartbeat CPU  3 instructions:   84000000 cycles:  125104654 heartbeat IPC: 0.31658 cumulative IPC: 0.21990 (Simulation time: 0 hr 9 min 37 sec) 
Heartbeat CPU  0 instructions:   81000002 cycles:  127364714 heartbeat IPC: 0.29570 cumulative IPC: 0.24532 (Simulation time: 0 hr 9 min 44 sec) 
Heartbeat CPU  2 instructions:   86000000 cycles:  127604587 heartbeat IPC: 0.36586 cumulative IPC: 0.24046 (Simulation time: 0 hr 9 min 44 sec) 
Heartbeat CPU  3 instructions:   85000000 cycles:  127934683 heartbeat IPC: 0.35335 cumulative IPC: 0.22354 (Simulation time: 0 hr 9 min 45 sec) 
Heartbeat CPU  1 instructions:   72000000 cycles:  128366262 heartbeat IPC: 0.13818 cumulative IPC: 0.21142 (Simulation time: 0 hr 9 min 46 sec) 
Heartbeat CPU  0 instructions:   82000000 cycles:  130280164 heartbeat IPC: 0.34300 cumulative IPC: 0.24801 (Simulation time: 0 hr 9 min 52 sec) 
Heartbeat CPU  2 instructions:   87000002 cycles:  130361513 heartbeat IPC: 0.36272 cumulative IPC: 0.24364 (Simulation time: 0 hr 9 min 52 sec) 
Heartbeat CPU  3 instructions:   86000002 cycles:  130784600 heartbeat IPC: 0.35089 cumulative IPC: 0.22695 (Simulation time: 0 hr 9 min 53 sec) 
Heartbeat CPU  2 instructions:   88000000 cycles:  133115780 heartbeat IPC: 0.36307 cumulative IPC: 0.24666 (Simulation time: 0 hr 9 min 59 sec) 
Heartbeat CPU  3 instructions:   87000000 cycles:  133585263 heartbeat IPC: 0.35706 cumulative IPC: 0.23029 (Simulation time: 0 hr 10 min 1 sec) 
Heartbeat CPU  0 instructions:   83000002 cycles:  133877051 heartbeat IPC: 0.27802 cumulative IPC: 0.24900 (Simulation time: 0 hr 10 min 1 sec) 
Heartbeat CPU  1 instructions:   73000001 cycles:  133993783 heartbeat IPC: 0.17770 cumulative IPC: 0.20969 (Simulation time: 0 hr 10 min 2 sec) 
Heartbeat CPU  2 instructions:   89000002 cycles:  136332244 heartbeat IPC: 0.31090 cumulative IPC: 0.24851 (Simulation time: 0 hr 10 min 8 sec) 
Heartbeat CPU  3 instructions:   88000000 cycles:  136337017 heartbeat IPC: 0.36340 cumulative IPC: 0.23356 (Simulation time: 0 hr 10 min 8 sec) 
Heartbeat CPU  0 instructions:   84000000 cycles:  137490753 heartbeat IPC: 0.27672 cumulative IPC: 0.24988 (Simulation time: 0 hr 10 min 11 sec) 
Heartbeat CPU  2 instructions:   90000000 cycles:  138995232 heartbeat IPC: 0.37552 cumulative IPC: 0.25146 (Simulation time: 0 hr 10 min 15 sec) 
Heartbeat CPU  1 instructions:   74000002 cycles:  139092942 heartbeat IPC: 0.19611 cumulative IPC: 0.20908 (Simulation time: 0 hr 10 min 15 sec) 
Heartbeat CPU  3 instructions:   89000001 cycles:  139427666 heartbeat IPC: 0.32356 cumulative IPC: 0.23597 (Simulation time: 0 hr 10 min 16 sec) 
Heartbeat CPU  0 instructions:   85000000 cycles:  141594861 heartbeat IPC: 0.24366 cumulative IPC: 0.24966 (Simulation time: 0 hr 10 min 22 sec) 
Heartbeat CPU  2 instructions:   91000003 cycles:  141700767 heartbeat IPC: 0.36961 cumulative IPC: 0.25418 (Simulation time: 0 hr 10 min 22 sec) 
Heartbeat CPU  3 instructions:   90000002 cycles:  142115490 heartbeat IPC: 0.37205 cumulative IPC: 0.23908 (Simulation time: 0 hr 10 min 24 sec) 
Heartbeat CPU  1 instructions:   75000003 cycles:  142722383 heartbeat IPC: 0.27552 cumulative IPC: 0.21112 (Simulation time: 0 hr 10 min 26 sec) 
Heartbeat CPU  0 instructions:   86000000 cycles:  144449272 heartbeat IPC: 0.35033 cumulative IPC: 0.25206 (Simulation time: 0 hr 10 min 31 sec) 
Heartbeat CPU  2 instructions:   92000000 cycles:  144635358 heartbeat IPC: 0.34076 cumulative IPC: 0.25629 (Simulation time: 0 hr 10 min 32 sec) 
Heartbeat CPU  3 instructions:   91000003 cycles:  144859618 heartbeat IPC: 0.36441 cumulative IPC: 0.24193 (Simulation time: 0 hr 10 min 32 sec) 
Heartbeat CPU  1 instructions:   76000000 cycles:  146658928 heartbeat IPC: 0.25403 cumulative IPC: 0.21250 (Simulation time: 0 hr 10 min 38 sec) 
Heartbeat CPU  0 instructions:   87000003 cycles:  147176955 heartbeat IPC: 0.36661 cumulative IPC: 0.25460 (Simulation time: 0 hr 10 min 39 sec) 
Heartbeat CPU  2 instructions:   93000001 cycles:  147332929 heartbeat IPC: 0.37070 cumulative IPC: 0.25880 (Simulation time: 0 hr 10 min 40 sec) 
Heartbeat CPU  3 instructions:   92000000 cycles:  147868469 heartbeat IPC: 0.33235 cumulative IPC: 0.24413 (Simulation time: 0 hr 10 min 41 sec) 
Heartbeat CPU  2 instructions:   94000003 cycles:  150106383 heartbeat IPC: 0.36056 cumulative IPC: 0.26104 (Simulation time: 0 hr 10 min 47 sec) 
Heartbeat CPU  0 instructions:   88000000 cycles:  150452188 heartbeat IPC: 0.30532 cumulative IPC: 0.25592 (Simulation time: 0 hr 10 min 48 sec) 
Heartbeat CPU  3 instructions:   93000001 cycles:  150530567 heartbeat IPC: 0.37564 cumulative IPC: 0.24690 (Simulation time: 0 hr 10 min 49 sec) 
Heartbeat CPU  1 instructions:   77000002 cycles:  151310657 heartbeat IPC: 0.21497 cumulative IPC: 0.21259 (Simulation time: 0 hr 10 min 51 sec) 
Heartbeat CPU  2 instructions:   95000003 cycles:  152687948 heartbeat IPC: 0.38736 cumulative IPC: 0.26358 (Simulation time: 0 hr 10 min 55 sec) 
Heartbeat CPU  3 instructions:   94000003 cycles:  153362433 heartbeat IPC: 0.35312 cumulative IPC: 0.24924 (Simulation time: 0 hr 10 min 57 sec) 
Heartbeat CPU  0 instructions:   89000000 cycles:  153744700 heartbeat IPC: 0.30372 cumulative IPC: 0.25713 (Simulation time: 0 hr 10 min 58 sec) 
Heartbeat CPU  2 instructions:   96000000 cycles:  154932870 heartbeat IPC: 0.44545 cumulative IPC: 0.26671 (Simulation time: 0 hr 11 min 2 sec) 
Heartbeat CPU  1 instructions:   78000000 cycles:  156026697 heartbeat IPC: 0.21204 cumulative IPC: 0.21257 (Simulation time: 0 hr 11 min 5 sec) 
Heartbeat CPU  3 instructions:   95000000 cycles:  156162440 heartbeat IPC: 0.35714 cumulative IPC: 0.25153 (Simulation time: 0 hr 11 min 5 sec) 
Heartbeat CPU  0 instructions:   90000002 cycles:  156538218 heartbeat IPC: 0.35797 cumulative IPC: 0.25926 (Simulation time: 0 hr 11 min 6 sec) 
Heartbeat CPU  2 instructions:   97000001 cycles:  157641850 heartbeat IPC: 0.36914 cumulative IPC: 0.26879 (Simulation time: 0 hr 11 min 10 sec) 
Heartbeat CPU  1 instructions:   79000003 cycles:  158036396 heartbeat IPC: 0.49759 cumulative IPC: 0.21685 (Simulation time: 0 hr 11 min 12 sec) 
Heartbeat CPU  3 instructions:   96000000 cycles:  159195203 heartbeat IPC: 0.32973 cumulative IPC: 0.25329 (Simulation time: 0 hr 11 min 17 sec) 
Heartbeat CPU  0 instructions:   91000003 cycles:  159588132 heartbeat IPC: 0.32788 cumulative IPC: 0.26081 (Simulation time: 0 hr 11 min 19 sec) 
Heartbeat CPU  1 instructions:   80000000 cycles:  160598250 heartbeat IPC: 0.39034 cumulative IPC: 0.22011 (Simulation time: 0 hr 11 min 22 sec) 
Heartbeat CPU  2 instructions:   98000001 cycles:  160654340 heartbeat IPC: 0.33195 cumulative IPC: 0.27019 (Simulation time: 0 hr 11 min 22 sec) 
Heartbeat CPU  3 instructions:   97000003 cycles:  162225544 heartbeat IPC: 0.33000 cumulative IPC: 0.25497 (Simulation time: 0 hr 11 min 26 sec) 
Heartbeat CPU  0 instructions:   92000000 cycles:  163440828 heartbeat IPC: 0.25956 cumulative IPC: 0.26077 (Simulation time: 0 hr 11 min 31 sec) 
Heartbeat CPU  1 instructions:   81000002 cycles:  163991452 heartbeat IPC: 0.29471 cumulative IPC: 0.22193 (Simulation time: 0 hr 11 min 32 sec) 
Heartbeat CPU  2 instructions:   99000002 cycles:  164388263 heartbeat IPC: 0.26782 cumulative IPC: 0.27012 (Simulation time: 0 hr 11 min 33 sec) 
Heartbeat CPU  3 instructions:   98000003 cycles:  165162868 heartbeat IPC: 0.34045 cumulative IPC: 0.25675 (Simulation time: 0 hr 11 min 36 sec) 
Heartbeat CPU  0 instructions:   93000003 cycles:  166348995 heartbeat IPC: 0.34386 cumulative IPC: 0.26248 (Simulation time: 0 hr 11 min 40 sec) 
Heartbeat CPU  1 instructions:   82000002 cycles:  166840746 heartbeat IPC: 0.35096 cumulative IPC: 0.22451 (Simulation time: 0 hr 11 min 42 sec) 
*** Reached end of trace for Core: 2 Repeating trace: /data3/CASSANDRA/traces/cassandra_phase4_core2.trace.xz
Heartbeat CPU  2 instructions:  100000000 cycles:  167164156 heartbeat IPC: 0.36024 cumulative IPC: 0.27187 (Simulation time: 0 hr 11 min 43 sec) 
Heartbeat CPU  3 instructions:   99000000 cycles:  168184231 heartbeat IPC: 0.33098 cumulative IPC: 0.25831 (Simulation time: 0 hr 11 min 46 sec) 
Heartbeat CPU  0 instructions:   94000003 cycles:  169567789 heartbeat IPC: 0.31068 cumulative IPC: 0.26354 (Simulation time: 0 hr 11 min 51 sec) 
Heartbeat CPU  2 instructions:  101000001 cycles:  169824935 heartbeat IPC: 0.37583 cumulative IPC: 0.27377 (Simulation time: 0 hr 11 min 51 sec) 
Heartbeat CPU  1 instructions:   83000001 cycles:  169832261 heartbeat IPC: 0.33428 cumulative IPC: 0.22676 (Simulation time: 0 hr 11 min 51 sec) 
*** Reached end of trace for Core: 3 Repeating trace: /data3/CASSANDRA/traces/cassandra_phase4_core3.trace.xz
Heartbeat CPU  3 instructions:  100000000 cycles:  170475387 heartbeat IPC: 0.43646 cumulative IPC: 0.26110 (Simulation time: 0 hr 11 min 53 sec) 
Heartbeat CPU  2 instructions:  102000003 cycles:  172042342 heartbeat IPC: 0.45098 cumulative IPC: 0.27643 (Simulation time: 0 hr 11 min 59 sec) 
Heartbeat CPU  1 instructions:   84000000 cycles:  172779437 heartbeat IPC: 0.33931 cumulative IPC: 0.22900 (Simulation time: 0 hr 12 min 1 sec) 
Heartbeat CPU  3 instructions:  101000002 cycles:  173239236 heartbeat IPC: 0.36181 cumulative IPC: 0.26297 (Simulation time: 0 hr 12 min 2 sec) 
Heartbeat CPU  0 instructions:   95000001 cycles:  173459329 heartbeat IPC: 0.25697 cumulative IPC: 0.26337 (Simulation time: 0 hr 12 min 3 sec) 
Heartbeat CPU  3 instructions:  102000003 cycles:  175514348 heartbeat IPC: 0.43954 cumulative IPC: 0.26563 (Simulation time: 0 hr 12 min 9 sec) 
Heartbeat CPU  2 instructions:  103000001 cycles:  175766627 heartbeat IPC: 0.26851 cumulative IPC: 0.27624 (Simulation time: 0 hr 12 min 10 sec) 
Heartbeat CPU  0 instructions:   96000000 cycles:  176326451 heartbeat IPC: 0.34878 cumulative IPC: 0.26498 (Simulation time: 0 hr 12 min 12 sec) 
Heartbeat CPU  1 instructions:   85000001 cycles:  176347531 heartbeat IPC: 0.28026 cumulative IPC: 0.23020 (Simulation time: 0 hr 12 min 12 sec) 
Heartbeat CPU  3 instructions:  103000000 cycles:  177804847 heartbeat IPC: 0.43658 cumulative IPC: 0.26818 (Simulation time: 0 hr 12 min 16 sec) 
Heartbeat CPU  2 instructions:  104000000 cycles:  178756695 heartbeat IPC: 0.33444 cumulative IPC: 0.27737 (Simulation time: 0 hr 12 min 19 sec) 
Heartbeat CPU  0 instructions:   97000002 cycles:  179107103 heartbeat IPC: 0.35963 cumulative IPC: 0.26668 (Simulation time: 0 hr 12 min 21 sec) 
Heartbeat CPU  1 instructions:   86000002 cycles:  179514952 heartbeat IPC: 0.31571 cumulative IPC: 0.23195 (Simulation time: 0 hr 12 min 22 sec) 
Heartbeat CPU  3 instructions:  104000000 cycles:  180703088 heartbeat IPC: 0.34504 cumulative IPC: 0.26960 (Simulation time: 0 hr 12 min 26 sec) 
Heartbeat CPU  2 instructions:  105000001 cycles:  181327248 heartbeat IPC: 0.38902 cumulative IPC: 0.27919 (Simulation time: 0 hr 12 min 28 sec) 
Heartbeat CPU  0 instructions:   98000003 cycles:  181837686 heartbeat IPC: 0.36622 cumulative IPC: 0.26841 (Simulation time: 0 hr 12 min 30 sec) 
Heartbeat CPU  1 instructions:   87000001 cycles:  182404967 heartbeat IPC: 0.34602 cumulative IPC: 0.23403 (Simulation time: 0 hr 12 min 31 sec) 
Heartbeat CPU  2 instructions:  106000000 cycles:  183743919 heartbeat IPC: 0.41379 cumulative IPC: 0.28123 (Simulation time: 0 hr 12 min 36 sec) 
Heartbeat CPU  3 instructions:  105000001 cycles:  183974431 heartbeat IPC: 0.30569 cumulative IPC: 0.27034 (Simulation time: 0 hr 12 min 36 sec) 
Heartbeat CPU  0 instructions:   99000000 cycles:  184696236 heartbeat IPC: 0.34983 cumulative IPC: 0.26986 (Simulation time: 0 hr 12 min 39 sec) 
Heartbeat CPU  1 instructions:   88000000 cycles:  185621364 heartbeat IPC: 0.31091 cumulative IPC: 0.23556 (Simulation time: 0 hr 12 min 42 sec) 
Heartbeat CPU  3 instructions:  106000002 cycles:  186426516 heartbeat IPC: 0.40782 cumulative IPC: 0.27242 (Simulation time: 0 hr 12 min 44 sec) 
Heartbeat CPU  2 instructions:  107000000 cycles:  186465580 heartbeat IPC: 0.36742 cumulative IPC: 0.28268 (Simulation time: 0 hr 12 min 45 sec) 
*** Reached end of trace for Core: 0 Repeating trace: /data3/CASSANDRA/traces/cassandra_phase4_core0.trace.xz
Heartbeat CPU  0 instructions:  100000000 cycles:  187651447 heartbeat IPC: 0.33839 cumulative IPC: 0.27110 (Simulation time: 0 hr 12 min 48 sec) 
Heartbeat CPU  1 instructions:   89000002 cycles:  188790541 heartbeat IPC: 0.31554 cumulative IPC: 0.23710 (Simulation time: 0 hr 12 min 52 sec) 
Heartbeat CPU  2 instructions:  108000000 cycles:  189202363 heartbeat IPC: 0.36539 cumulative IPC: 0.28405 (Simulation time: 0 hr 12 min 53 sec) 
Heartbeat CPU  3 instructions:  107000001 cycles:  189249839 heartbeat IPC: 0.35419 cumulative IPC: 0.27382 (Simulation time: 0 hr 12 min 53 sec) 
Heartbeat CPU  0 instructions:  101000003 cycles:  191086587 heartbeat IPC: 0.29111 cumulative IPC: 0.27151 (Simulation time: 0 hr 12 min 59 sec) 
Heartbeat CPU  1 instructions:   90000003 cycles:  191546394 heartbeat IPC: 0.36286 cumulative IPC: 0.23918 (Simulation time: 0 hr 13 min 0 sec) 
Heartbeat CPU  2 instructions:  109000000 cycles:  192201213 heartbeat IPC: 0.33346 cumulative IPC: 0.28494 (Simulation time: 0 hr 13 min 2 sec) 
Heartbeat CPU  3 instructions:  108000000 cycles:  192452811 heartbeat IPC: 0.31221 cumulative IPC: 0.27455 (Simulation time: 0 hr 13 min 3 sec) 
Heartbeat CPU  1 instructions:   91000003 cycles:  194345234 heartbeat IPC: 0.35729 cumulative IPC: 0.24112 (Simulation time: 0 hr 13 min 9 sec) 
Heartbeat CPU  0 instructions:  102000001 cycles:  194405543 heartbeat IPC: 0.30130 cumulative IPC: 0.27209 (Simulation time: 0 hr 13 min 9 sec) 
Heartbeat CPU  2 instructions:  110000000 cycles:  194962669 heartbeat IPC: 0.36213 cumulative IPC: 0.28618 (Simulation time: 0 hr 13 min 11 sec) 
Heartbeat CPU  3 instructions:  109000000 cycles:  195272147 heartbeat IPC: 0.35469 cumulative IPC: 0.27588 (Simulation time: 0 hr 13 min 12 sec) 
Heartbeat CPU  0 instructions:  103000002 cycles:  197088156 heartbeat IPC: 0.37277 cumulative IPC: 0.27366 (Simulation time: 0 hr 13 min 18 sec) 
Heartbeat CPU  1 instructions:   92000000 cycles:  197210436 heartbeat IPC: 0.34901 cumulative IPC: 0.24291 (Simulation time: 0 hr 13 min 18 sec) 
Heartbeat CPU  3 instructions:  110000000 cycles:  198328597 heartbeat IPC: 0.32718 cumulative IPC: 0.27678 (Simulation time: 0 hr 13 min 22 sec) 
Heartbeat CPU  2 instructions:  111000001 cycles:  198361032 heartbeat IPC: 0.29426 cumulative IPC: 0.28634 (Simulation time: 0 hr 13 min 22 sec) 
Heartbeat CPU  1 instructions:   93000001 cycles:  199681575 heartbeat IPC: 0.40467 cumulative IPC: 0.24519 (Simulation time: 0 hr 13 min 26 sec) 
Heartbeat CPU  0 instructions:  104000000 cycles:  199809590 heartbeat IPC: 0.36745 cumulative IPC: 0.27511 (Simulation time: 0 hr 13 min 26 sec) 
Heartbeat CPU  3 instructions:  111000000 cycles:  201115743 heartbeat IPC: 0.35879 cumulative IPC: 0.27807 (Simulation time: 0 hr 13 min 31 sec) 
Heartbeat CPU  2 instructions:  112000000 cycles:  201166538 heartbeat IPC: 0.35644 cumulative IPC: 0.28745 (Simulation time: 0 hr 13 min 31 sec) 
Heartbeat CPU  1 instructions:   94000001 cycles:  202483787 heartbeat IPC: 0.35686 cumulative IPC: 0.24694 (Simulation time: 0 hr 13 min 35 sec) 
Heartbeat CPU  0 instructions:  105000001 cycles:  202567131 heartbeat IPC: 0.36264 cumulative IPC: 0.27646 (Simulation time: 0 hr 13 min 35 sec) 
Heartbeat CPU  3 instructions:  112000000 cycles:  203916636 heartbeat IPC: 0.35703 cumulative IPC: 0.27930 (Simulation time: 0 hr 13 min 39 sec) 
Heartbeat CPU  2 instructions:  113000003 cycles:  204131513 heartbeat IPC: 0.33727 cumulative IPC: 0.28828 (Simulation time: 0 hr 13 min 40 sec) 
Heartbeat CPU  0 instructions:  106000001 cycles:  205595989 heartbeat IPC: 0.33016 cumulative IPC: 0.27736 (Simulation time: 0 hr 13 min 44 sec) 
Heartbeat CPU  1 instructions:   95000001 cycles:  205952851 heartbeat IPC: 0.28826 cumulative IPC: 0.24773 (Simulation time: 0 hr 13 min 45 sec) 
Heartbeat CPU  3 instructions:  113000002 cycles:  206739024 heartbeat IPC: 0.35431 cumulative IPC: 0.28046 (Simulation time: 0 hr 13 min 48 sec) 
Heartbeat CPU  2 instructions:  114000002 cycles:  207071471 heartbeat IPC: 0.34014 cumulative IPC: 0.28911 (Simulation time: 0 hr 13 min 49 sec) 
Heartbeat CPU  1 instructions:   96000000 cycles:  207867586 heartbeat IPC: 0.52226 cumulative IPC: 0.25060 (Simulation time: 0 hr 13 min 52 sec) 
Heartbeat CPU  2 instructions:  115000001 cycles:  209560154 heartbeat IPC: 0.40182 cumulative IPC: 0.29062 (Simulation time: 0 hr 13 min 57 sec) 
Heartbeat CPU  0 instructions:  107000000 cycles:  209680110 heartbeat IPC: 0.24485 cumulative IPC: 0.27664 (Simulation time: 0 hr 13 min 57 sec) 
Heartbeat CPU  3 instructions:  114000003 cycles:  209849712 heartbeat IPC: 0.32147 cumulative IPC: 0.28115 (Simulation time: 0 hr 13 min 58 sec) 
Heartbeat CPU  1 instructions:   97000002 cycles:  210504368 heartbeat IPC: 0.37925 cumulative IPC: 0.25242 (Simulation time: 0 hr 14 min 0 sec) 
Heartbeat CPU  3 instructions:  115000000 cycles:  212863150 heartbeat IPC: 0.33185 cumulative IPC: 0.28196 (Simulation time: 0 hr 14 min 8 sec) 
Heartbeat CPU  0 instructions:  108000000 cycles:  212959115 heartbeat IPC: 0.30497 cumulative IPC: 0.27714 (Simulation time: 0 hr 14 min 8 sec) 
Heartbeat CPU  2 instructions:  116000000 cycles:  212970838 heartbeat IPC: 0.29320 cumulative IPC: 0.29067 (Simulation time: 0 hr 14 min 8 sec) 
Heartbeat CPU  1 instructions:   98000002 cycles:  213388852 heartbeat IPC: 0.34668 cumulative IPC: 0.25386 (Simulation time: 0 hr 14 min 9 sec) 
Heartbeat CPU  3 instructions:  116000000 cycles:  215695524 heartbeat IPC: 0.35306 cumulative IPC: 0.28301 (Simulation time: 0 hr 14 min 17 sec) 
Heartbeat CPU  2 instructions:  117000000 cycles:  216069927 heartbeat IPC: 0.32268 cumulative IPC: 0.29119 (Simulation time: 0 hr 14 min 18 sec) 
Heartbeat CPU  1 instructions:   99000002 cycles:  216083962 heartbeat IPC: 0.37104 cumulative IPC: 0.25550 (Simulation time: 0 hr 14 min 18 sec) 
Heartbeat CPU  0 instructions:  109000002 cycles:  216313759 heartbeat IPC: 0.29809 cumulative IPC: 0.27750 (Simulation time: 0 hr 14 min 19 sec) 
Heartbeat CPU  3 instructions:  117000001 cycles:  218083761 heartbeat IPC: 0.41872 cumulative IPC: 0.28468 (Simulation time: 0 hr 14 min 24 sec) 
Heartbeat CPU  2 instructions:  118000000 cycles:  218766933 heartbeat IPC: 0.37078 cumulative IPC: 0.29229 (Simulation time: 0 hr 14 min 27 sec) 
*** Reached end of trace for Core: 1 Repeating trace: /data3/CASSANDRA/traces/cassandra_phase4_core1.trace.xz
Heartbeat CPU  1 instructions:  100000000 cycles:  219043654 heartbeat IPC: 0.33787 cumulative IPC: 0.25676 (Simulation time: 0 hr 14 min 27 sec) 
Heartbeat CPU  0 instructions:  110000000 cycles:  219655744 heartbeat IPC: 0.29922 cumulative IPC: 0.27788 (Simulation time: 0 hr 14 min 29 sec) 
Heartbeat CPU  1 instructions:  101000000 cycles:  221359016 heartbeat IPC: 0.43190 cumulative IPC: 0.25881 (Simulation time: 0 hr 14 min 35 sec) 
Heartbeat CPU  2 instructions:  119000003 cycles:  221380762 heartbeat IPC: 0.38258 cumulative IPC: 0.29349 (Simulation time: 0 hr 14 min 35 sec) 
Heartbeat CPU  3 instructions:  118000000 cycles:  221577133 heartbeat IPC: 0.28626 cumulative IPC: 0.28471 (Simulation time: 0 hr 14 min 35 sec) 
Heartbeat CPU  0 instructions:  111000000 cycles:  222449572 heartbeat IPC: 0.35793 cumulative IPC: 0.27900 (Simulation time: 0 hr 14 min 39 sec) 
Heartbeat CPU  1 instructions:  102000003 cycles:  223039569 heartbeat IPC: 0.59504 cumulative IPC: 0.26166 (Simulation time: 0 hr 14 min 41 sec) 
Heartbeat CPU  2 instructions:  120000000 cycles:  223491746 heartbeat IPC: 0.47371 cumulative IPC: 0.29540 (Simulation time: 0 hr 14 min 42 sec) 
Heartbeat CPU  3 instructions:  119000003 cycles:  224839016 heartbeat IPC: 0.30657 cumulative IPC: 0.28507 (Simulation time: 0 hr 14 min 47 sec) 
Heartbeat CPU  0 instructions:  112000000 cycles:  225257775 heartbeat IPC: 0.35610 cumulative IPC: 0.28008 (Simulation time: 0 hr 14 min 48 sec) 
Heartbeat CPU  2 instructions:  121000003 cycles:  226095863 heartbeat IPC: 0.38401 cumulative IPC: 0.29654 (Simulation time: 0 hr 14 min 51 sec) 
Heartbeat CPU  1 instructions:  103000001 cycles:  226287825 heartbeat IPC: 0.30786 cumulative IPC: 0.26240 (Simulation time: 0 hr 14 min 51 sec) 
Heartbeat CPU  3 instructions:  120000000 cycles:  227946177 heartbeat IPC: 0.32184 cumulative IPC: 0.28563 (Simulation time: 0 hr 14 min 57 sec) 
Heartbeat CPU  0 instructions:  113000002 cycles:  228096451 heartbeat IPC: 0.35228 cumulative IPC: 0.28109 (Simulation time: 0 hr 14 min 57 sec) 
Heartbeat CPU  2 instructions:  122000001 cycles:  228251504 heartbeat IPC: 0.46390 cumulative IPC: 0.29831 (Simulation time: 0 hr 14 min 58 sec) 
Heartbeat CPU  1 instructions:  104000000 cycles:  228635224 heartbeat IPC: 0.42600 cumulative IPC: 0.26428 (Simulation time: 0 hr 14 min 59 sec) 
Heartbeat CPU  3 instructions:  121000000 cycles:  230610411 heartbeat IPC: 0.37534 cumulative IPC: 0.28679 (Simulation time: 0 hr 15 min 6 sec) 
Heartbeat CPU  2 instructions:  123000001 cycles:  230895547 heartbeat IPC: 0.37821 cumulative IPC: 0.29933 (Simulation time: 0 hr 15 min 7 sec) 
Heartbeat CPU  1 instructions:  105000003 cycles:  231482814 heartbeat IPC: 0.35118 cumulative IPC: 0.26547 (Simulation time: 0 hr 15 min 8 sec) 
Heartbeat CPU  0 instructions:  114000000 cycles:  231509925 heartbeat IPC: 0.29296 cumulative IPC: 0.28128 (Simulation time: 0 hr 15 min 8 sec) 
Heartbeat CPU  3 instructions:  122000000 cycles:  233691017 heartbeat IPC: 0.32461 cumulative IPC: 0.28734 (Simulation time: 0 hr 15 min 16 sec) 
Heartbeat CPU  2 instructions:  124000000 cycles:  233903935 heartbeat IPC: 0.33240 cumulative IPC: 0.29981 (Simulation time: 0 hr 15 min 16 sec) 
Heartbeat CPU  1 instructions:  106000000 cycles:  234420109 heartbeat IPC: 0.34045 cumulative IPC: 0.26652 (Simulation time: 0 hr 15 min 18 sec) 
Heartbeat CPU  0 instructions:  115000002 cycles:  234710837 heartbeat IPC: 0.31241 cumulative IPC: 0.28176 (Simulation time: 0 hr 15 min 19 sec) 
Heartbeat CPU  3 instructions:  123000002 cycles:  236043315 heartbeat IPC: 0.42512 cumulative IPC: 0.28887 (Simulation time: 0 hr 15 min 23 sec) 
Heartbeat CPU  2 instructions:  125000001 cycles:  236672786 heartbeat IPC: 0.36116 cumulative IPC: 0.30061 (Simulation time: 0 hr 15 min 25 sec) 
Heartbeat CPU  0 instructions:  116000000 cycles:  237516540 heartbeat IPC: 0.35642 cumulative IPC: 0.28274 (Simulation time: 0 hr 15 min 28 sec) 
Heartbeat CPU  1 instructions:  107000002 cycles:  237528658 heartbeat IPC: 0.32169 cumulative IPC: 0.26733 (Simulation time: 0 hr 15 min 28 sec) 
Heartbeat CPU  3 instructions:  124000000 cycles:  238592088 heartbeat IPC: 0.39234 cumulative IPC: 0.29010 (Simulation time: 0 hr 15 min 32 sec) 
Heartbeat CPU  2 instructions:  126000001 cycles:  239248835 heartbeat IPC: 0.38819 cumulative IPC: 0.30166 (Simulation time: 0 hr 15 min 34 sec) 
Heartbeat CPU  0 instructions:  117000002 cycles:  240347467 heartbeat IPC: 0.35324 cumulative IPC: 0.28366 (Simulation time: 0 hr 15 min 37 sec) 
Heartbeat CPU  1 instructions:  108000000 cycles:  240692337 heartbeat IPC: 0.31609 cumulative IPC: 0.26804 (Simulation time: 0 hr 15 min 38 sec) 
Heartbeat CPU  3 instructions:  125000000 cycles:  241837739 heartbeat IPC: 0.30810 cumulative IPC: 0.29037 (Simulation time: 0 hr 15 min 42 sec) 
Heartbeat CPU  2 instructions:  127000000 cycles:  242361441 heartbeat IPC: 0.32127 cumulative IPC: 0.30194 (Simulation time: 0 hr 15 min 43 sec) 
Heartbeat CPU  1 instructions:  109000000 cycles:  243283120 heartbeat IPC: 0.38598 cumulative IPC: 0.26943 (Simulation time: 0 hr 15 min 46 sec) 
Heartbeat CPU  0 instructions:  118000003 cycles:  244363733 heartbeat IPC: 0.24899 cumulative IPC: 0.28303 (Simulation time: 0 hr 15 min 49 sec) 
Heartbeat CPU  3 instructions:  126000000 cycles:  244889845 heartbeat IPC: 0.32764 cumulative IPC: 0.29089 (Simulation time: 0 hr 15 min 51 sec) 
Heartbeat CPU  2 instructions:  128000000 cycles:  245385672 heartbeat IPC: 0.33066 cumulative IPC: 0.30233 (Simulation time: 0 hr 15 min 52 sec) 
Heartbeat CPU  1 instructions:  110000001 cycles:  245437662 heartbeat IPC: 0.46414 cumulative IPC: 0.27133 (Simulation time: 0 hr 15 min 52 sec) 
Heartbeat CPU  3 instructions:  127000003 cycles:  247912815 heartbeat IPC: 0.33080 cumulative IPC: 0.29143 (Simulation time: 0 hr 16 min 0 sec) 
Heartbeat CPU  0 instructions:  119000000 cycles:  247988582 heartbeat IPC: 0.27587 cumulative IPC: 0.28291 (Simulation time: 0 hr 16 min 0 sec) 
Heartbeat CPU  1 instructions:  111000003 cycles:  248084265 heartbeat IPC: 0.37784 cumulative IPC: 0.27259 (Simulation time: 0 hr 16 min 1 sec) 
Heartbeat CPU  2 instructions:  129000001 cycles:  248162505 heartbeat IPC: 0.36012 cumulative IPC: 0.30305 (Simulation time: 0 hr 16 min 1 sec) 
Heartbeat CPU  3 instructions:  128000000 cycles:  250340716 heartbeat IPC: 0.41188 cumulative IPC: 0.29272 (Simulation time: 0 hr 16 min 8 sec) 
Heartbeat CPU  1 instructions:  112000000 cycles:  250717744 heartbeat IPC: 0.37972 cumulative IPC: 0.27384 (Simulation time: 0 hr 16 min 9 sec) 
Heartbeat CPU  2 instructions:  130000001 cycles:  250867519 heartbeat IPC: 0.36968 cumulative IPC: 0.30384 (Simulation time: 0 hr 16 min 10 sec) 
Heartbeat CPU  0 instructions:  120000000 cycles:  251272863 heartbeat IPC: 0.30448 cumulative IPC: 0.28323 (Simulation time: 0 hr 16 min 11 sec) 
Heartbeat CPU  1 instructions:  113000003 cycles:  253348033 heartbeat IPC: 0.38019 cumulative IPC: 0.27506 (Simulation time: 0 hr 16 min 18 sec) 
Heartbeat CPU  3 instructions:  129000002 cycles:  253395564 heartbeat IPC: 0.32735 cumulative IPC: 0.29318 (Simulation time: 0 hr 16 min 18 sec) 
Heartbeat CPU  2 instructions:  131000000 cycles:  253548636 heartbeat IPC: 0.37298 cumulative IPC: 0.30465 (Simulation time: 0 hr 16 min 18 sec) 
Heartbeat CPU  0 instructions:  121000001 cycles:  254591914 heartbeat IPC: 0.30129 cumulative IPC: 0.28349 (Simulation time: 0 hr 16 min 22 sec) 
Heartbeat CPU  1 instructions:  114000003 cycles:  256251168 heartbeat IPC: 0.34446 cumulative IPC: 0.27593 (Simulation time: 0 hr 16 min 27 sec) 
Heartbeat CPU  3 instructions:  130000000 cycles:  256495906 heartbeat IPC: 0.32254 cumulative IPC: 0.29358 (Simulation time: 0 hr 16 min 28 sec) 
Heartbeat CPU  2 instructions:  132000000 cycles:  256515249 heartbeat IPC: 0.33708 cumulative IPC: 0.30507 (Simulation time: 0 hr 16 min 28 sec) 
Heartbeat CPU  0 instructions:  122000002 cycles:  258046988 heartbeat IPC: 0.28943 cumulative IPC: 0.28357 (Simulation time: 0 hr 16 min 33 sec) 
Heartbeat CPU  1 instructions:  115000001 cycles:  258427208 heartbeat IPC: 0.45955 cumulative IPC: 0.27763 (Simulation time: 0 hr 16 min 34 sec) 
Heartbeat CPU  2 instructions:  133000000 cycles:  259299566 heartbeat IPC: 0.35915 cumulative IPC: 0.30571 (Simulation time: 0 hr 16 min 37 sec) 
Heartbeat CPU  3 instructions:  131000002 cycles:  259393453 heartbeat IPC: 0.34512 cumulative IPC: 0.29421 (Simulation time: 0 hr 16 min 37 sec) 
Heartbeat CPU  1 instructions:  116000000 cycles:  260476339 heartbeat IPC: 0.48801 cumulative IPC: 0.27946 (Simulation time: 0 hr 16 min 41 sec) 
Heartbeat CPU  0 instructions:  123000000 cycles:  260857467 heartbeat IPC: 0.35581 cumulative IPC: 0.28443 (Simulation time: 0 hr 16 min 43 sec) 
Heartbeat CPU  2 instructions:  134000003 cycles:  261753295 heartbeat IPC: 0.40754 cumulative IPC: 0.30676 (Simulation time: 0 hr 16 min 46 sec) 
Heartbeat CPU  3 instructions:  132000000 cycles:  262242999 heartbeat IPC: 0.35093 cumulative IPC: 0.29489 (Simulation time: 0 hr 16 min 47 sec) 
Heartbeat CPU  0 instructions:  124000000 cycles:  263686075 heartbeat IPC: 0.35353 cumulative IPC: 0.28525 (Simulation time: 0 hr 16 min 51 sec) 
Heartbeat CPU  2 instructions:  135000000 cycles:  264480542 heartbeat IPC: 0.36667 cumulative IPC: 0.30744 (Simulation time: 0 hr 16 min 53 sec) 
Heartbeat CPU  3 instructions:  133000002 cycles:  265369181 heartbeat IPC: 0.31988 cumulative IPC: 0.29521 (Simulation time: 0 hr 16 min 56 sec) 
Heartbeat CPU  1 instructions:  117000002 cycles:  265563120 heartbeat IPC: 0.19659 cumulative IPC: 0.27771 (Simulation time: 0 hr 16 min 56 sec) 
Heartbeat CPU  0 instructions:  125000001 cycles:  266498704 heartbeat IPC: 0.35554 cumulative IPC: 0.28606 (Simulation time: 0 hr 16 min 59 sec) 
Heartbeat CPU  2 instructions:  136000000 cycles:  267611547 heartbeat IPC: 0.31939 cumulative IPC: 0.30759 (Simulation time: 0 hr 17 min 2 sec) 
Heartbeat CPU  1 instructions:  118000000 cycles:  268467759 heartbeat IPC: 0.34428 cumulative IPC: 0.27850 (Simulation time: 0 hr 17 min 5 sec) 
Heartbeat CPU  3 instructions:  134000000 cycles:  268711075 heartbeat IPC: 0.29923 cumulative IPC: 0.29527 (Simulation time: 0 hr 17 min 6 sec) 
Heartbeat CPU  0 instructions:  126000001 cycles:  270142977 heartbeat IPC: 0.27440 cumulative IPC: 0.28589 (Simulation time: 0 hr 17 min 9 sec) 
Heartbeat CPU  3 instructions:  135000003 cycles:  271951039 heartbeat IPC: 0.30865 cumulative IPC: 0.29544 (Simulation time: 0 hr 17 min 13 sec) 
Heartbeat CPU  2 instructions:  137000000 cycles:  272227917 heartbeat IPC: 0.21662 cumulative IPC: 0.30590 (Simulation time: 0 hr 17 min 14 sec) 
Heartbeat CPU  0 instructions:  127000000 cycles:  273050212 heartbeat IPC: 0.34397 cumulative IPC: 0.28657 (Simulation time: 0 hr 17 min 16 sec) 
Heartbeat CPU  3 instructions:  136000000 cycles:  274635079 heartbeat IPC: 0.37257 cumulative IPC: 0.29627 (Simulation time: 0 hr 17 min 21 sec) 
Heartbeat CPU  1 instructions:  119000000 cycles:  274852573 heartbeat IPC: 0.15662 cumulative IPC: 0.27540 (Simulation time: 0 hr 17 min 22 sec) 
Heartbeat CPU  2 instructions:  138000002 cycles:  275129078 heartbeat IPC: 0.34469 cumulative IPC: 0.30635 (Simulation time: 0 hr 17 min 22 sec) 
Heartbeat CPU  0 instructions:  128000000 cycles:  275921880 heartbeat IPC: 0.34823 cumulative IPC: 0.28727 (Simulation time: 0 hr 17 min 24 sec) 
[...]
IIIIIIIA4444A2444444A244A244444444444444A2444444444IA4444444444A
IIIIIIII4444A2444444A244A244444444444444A2444444444IA4444444444A
IIIIIIII4444A2444444A244A244444444444444A2444444444IAA244444444A
IIIIIIIA4444A2444444A244A244444444444444A2444444444IAA244444444A
IIIIIIIA4444A2444444A244A244444444444444A24444444444AA244444444A
IIIIIIIA4444A2444444A244A244444444444444I24444444444AA244444444A
IIIIIIIA4444A2444444A244A244444444444444424444444444AA244444444A
IIIIIIIA4444A2444444A244A244444444444444A24444444444AA244444444A
IIIIIIIA4444A2444444A244A244444444444444I24444444444AA244444444A
IIIIIIII4444A2444444A244A244444444444444I24444444444AA244444444A
IIIIIIII4444A2444444A244A244444444444444424444444444AA244444444A
IIIIIIII4444A2444444A244A244444444444444A24444444444AA244444444A
IIIIIIIIIIIIIIIIIIIIIIIIA444444444IIIIIIIIIIIIIIIIIIIIIIIIIIIIII
IIIIIIIIIIIIIIIIIIIIIIIIA4444444444I4I4I44I44IIIIIIIIIIIIIIIIIII
IIIIIIIIIIIIIIIIIIIIIIIIA4444444444I4I4IA4444I4I4444II4I4444IIII
IIIIIIIIIIIIIIIIIIIIIIIIA244444444444I44A4444I4I4444II4I4444IIII
IIIIIIIIIIIIIIIIIIIIIIIIA244444444444I44A444444I444444444444IIII
IIIIIIIIIIIIIIIIIIIIA244A244444444444I44A444444I444444444444IIII
IIIIIIIIIIIIIIIIIIIIA244AI44444444444I44A444444I444444444444IIII
IIIIIIIIIIIIIIIIIIIIA244A444444444444I44A444444I444444444444IIII
IIIIIIIIIIIIIIIIIIIIAI44A444444444444I44A444444I444444444444IIII
IIIIIIIIIIIIIIIIIIIIAI44A244444444444444A444444I444444444444IIII
IIIIIIIIIIIIIIIIIIIIAI44I244444444444444A444444I444444444444IIII
IIIIIIIIIIIIIIIIIIIIAI44A244444444444444A444444I444444444444IIII
IIIIIIIIIIIIIIIIIIIIAI44A244444444444444A444444I4444A4444444IIII
IIIIIIIIIIIIIIIIIIIIA444A244444444444444A444444I4444A4444444IIII
IIA44444444IIIIIIIIIA444A244444444444444A444444I4444A4444444IIII
IIA44444444IIIIIIIIIA444A244444444444444A444444I4444A22444444444
IIA4444A4444444II444A444A244444444444444A444444I4444A22444444444
IIA4444I4444444II444A444A244444444444444A444444I4444A22444444444
IIA4444I4444444II444I444A244444444444444A444444I4444A22444444444
IIA4444I4444444II444I444I244444444444444A444444I4444A22444444444
IIA4444I4444444II444I444A244444444444444A444444I4444A22444444444
IIA4444A4444444444444444A244444444444444A444444I4444A22444444444
IIA4444A4444444444444444I244444444444444A444444I4444A22444444444
IIA4444A4444444444444444A244444444444444A444444I4444A22444444444
IIA4444A4444444444444444A244444444444444A444444I4444AA2444444444
IIA4444A4444444444444444I244444444444444A444444I4444AA2444444444
IIA4444A4444444444444444A244444444444444A444444I4444AA2444444444
IIA4444A2444444444444444A244444444444444A444444I4444AA2444444444
IIA4444A244444444444A444A244444444444444A444444I4444AA2444444444
IIA4444A244444444444A444A244444444444444A44444444444AA2444444444
IIA4444A244444444444A444I244444444444444A44444444444AA2444444444
IIA4444A244444444444A444A244444444444444A44444444444AA2444444444
IIA4444A244444444444I444A244444444444444A44444444444AA2444444444
IIA4444A244444444444I444I244444444444444A44444444444AA2444444444
IIA4444A244444444444A2222244444444444444A44444444444AA2444444444
IIA4444A244444444444AI222244444444444444A44444444444AA2444444444
IIA4444A244444444444AI22A244444444444444A44444444444AA2444444444
IIA4444A244444444444AII2A244444444444444A44444444444AA2444444444
IIA4444A244444444444A442A244444444444444A44444444444AA2444444444
IIA4444A244444444444A442A244444444444444A24444444444AA2444444444
IIA4444A244444444444A442A244444444444444I24444444444AA2444444444
IIA4444A244444444444A442A244444444444444424444444444AA2444444444
IIIIIIIIIIIIIIIIIIIIIIIIA244444IIIIIIIIIIIIIIIIIIIIIIIIIIIIIIIII
IIIIIIIIIIIIIIIIIIIIIIIIA24444444I44444I444IIIIIIIIIIIIIIIIIIIII
IIIIIIIIIIIIIIIIIIIA24444II4444IIIIIIIIIIIIIIIIIIIIIIIIIIIIIIIII
IIIIIIIIIIIIIIIIIA2A24444444444IIIIIIIIIIIIIIIIIIIIIIIIIIIIIIIII
IIIIIIIIIIIIIIIIIA2AI4444444444IIIIIIIIIIIIIIIIIIIIIIIIIIIIIIIII
IIIIIIIIIIIIIIIIIAIAI4444444444IIIIIIIIIIIIIIIIIIIIIIIIIIIIIIIII
IIIIIIIIIIIIIIIIIIIAI4444444444IIIIIIIIIIIIIIIIIIIIIIIIIIIIIIIII
IIIIIIIIIIIIIIIIIIIII4444444444IIIIIIIIIIIIIIIIIIIIIIIIIIIIIIIII
IIIIIIIIIIIIIIIIIIIII444A2444444444444444IIIIIIIIIIIIIIIIIIIIIII
IIIIIIIIIIIIIIIIIIIII444A244444444444444444I4IIIIIIIIIIIIIIIIIII
IIIIIIIIIIIIIIIIIIIII444A24444444444444444444IIIIIIIIIIIIIIIIIII
IIIIIIIIIIIIIIIIIIIII444A24444444444444444444IIIIIIIA4444I4444I4
IIIIIIIIIIIIIIIIIIIIA444A24444444444444444444IIIIIIIA4444I4444I4
IIIIIIIIIIIIIIIIIIIIA444A2444444444444444444A44IIII4A4444I4444I4
IIIIIIIIIIIIIIIIIIIIA444I2444444444444444444A44IIII4A4444I4444I4
IIIIIIIIIIIIIIIIIIIIA444A2444444444444444444A44IIII4A4444I4444I4
IIIIIIIIIIIIIIIIIIIIA244A2444444444444444444A44IIII4A4444I4444I4
IIIIIIIIIIIIIIIIIIIIA244A2444444444444444444A44IIII4A24444444444
IIIIIIIIIIIIIIIIIIIII244A2444444444444444444A44IIII4A24444444444
IIIIIIIIIIIIIIIIIIIII244A2444444444444444444A44IIII4I24444444444
IIIIIIIA2II444III44I4244A2444444444444444444A44IIII4I24444444444
IIIIIIIAIII444III44I4244A2444444444444444444A44IIII4I24444444444
IIIIIIIAIII444III44I4244A2444444444444444444A44IIII4A24444444444
IIIIIIIA24I44444I4444244A2444444444444444444A44IIII4A24444444444
IIIIIIIA24I44444I4444244A2444444444444444444A44IIII4AA2444444444
IIIIIIIA24444444I4444244A2444444444444444444A44IIII4AA2444444444
IIIIIIIAI4444444I4444244A2444444444444444444A44IIII4AA2444444444
IIIIIIIAI4444444I4444244A2444444444444444444A44IIII4AAI444444444
IIIIIIIAI4444444I444A244A2444444444444444444A44IIII4AAI444444444
IIIIIIIAI4444444I444A244A2444444444444444444A44IIII4AII444444444
IIIIIIIII4444444I444A244A2444444444444444444A44IIII4AII444444444
IIIIIIIII4444444I444I244A2444444444444444444A44IIII4AII444444444
IIIIIIIII4444444I444I244A244444444444444A244A4444II4AI4444444444
IIIIIIIII4444444I444I244A244444444444444A244A4444I44A44444444444
IIIIIIIA24444444I4444244A244444444444444A244A4444I44A44444444444
IIIIIIIAI4444444I4444244A244444444444444A244A4444I44A44444444444
IIIIIIIAI4444444I4444244A244444444444444A244A4444444A44444444444
IIIIIIIAI4444444I444A244A244444444444444A244A4444444A44444444444
IIIIIIIAI4444444I444A244A244444444444444I244A4444444A44444444444
IIIIIIIAI4444444I444A244A2444444444444444244A4444444A44444444444
IIIIIIIAI4444444I444A244I2444444444444444244A4444444A44444444444
IIIIIIIAI4444444IA44A244I2444444444444444244A4444444A44444444444
IIIIIIIAI4444444IA44A244I244444444A444444244A4444444A44444444444
IIIIIIIAI4444444IA44A244I244444444A4A4444244A4444444A44444444444
IIIIIIIAI4444444IA44A244I244444444A4A44A4244A4444444A44444444444
IIIIIIIAI44444A44A44A244I244444444A4A44A4244A4444444A44444444444
IIIIIIIAI44444A44A44A244I244444444A4A44A4244A4444444A4444444444A
IIIIIIIAI44444A44A44A244I244444444A4A44A4244A4A44444A4444444444A
IA44IIIAI44444A44A44A244I244444444A4A44A4244A4A44444A4444444444A
IA44A44AI44444A44A44A244I244444444A4A44A4244A4A44444A4444444444A
IA44A44AI44444A44A44A24A4244444444A4A44A4244A4A44444A4444444444A
IIIIIIIIIIIIIIIIIIIIIIIIA4II4444I4II4444I4I4IIIIIIIIIIIIIIIIIIII
IIIIIIIIIIIIIIIIIIIIIIIIA4II444444II4444I444IIIIIIIIIIIIIIIIIIII
IIIIIIIIIIIIIIIIIIIIIIIIA4II444444II4444A444444444IIII44I444IIII
IIIIIIIIIIIIIIIIIIIIIIIIA4II444444444444A444444444IIII44I444IIII
IIIIIIIIIIIIIIIIIIIIIIIIA4II444444444444A4444444444444444444IIII
IIIIIIIIIIIIIIIIIIIIIIIIA222222222222444A4444444444444444444IIII
IIIIIIIIIIIIIIIIIIIIIIIIA222222222222444I4444444444444444444IIII
IIIIIIIIIIIIIIIIIIIIA44IA222222222222444I4444444444444444444IIII
IIIIIIIIIIIIIIIIIIIIA44IA22222222222244444444444444444444444IIII
IIIIIIIIIIIIIIIIIIIIA44IA222222222222444444444444444A44444444I4I
IIIIIIIIIIIIIIIIIIIIA44IA222222222222444444444444444I44444444I4I
IIIIIIIIIIIIIIIIIIIIA244A222222222222444444444444444I44444444I4I
IIIIIIIIIIIIIIIIIIIIA244A222222222222444444444444444A44444444444
IIIIIIIA4II444444444A244A222222222222444444444444444A44444444444
IIIIIIIA4II444444444A244A222222222222444444444444444AA4444444444
IIIIIIIA444444444444A244A222222222222444444444444444AA4444444444
IIIIIIII444444444444A244A222222222222444444444444444AA4444444444
IIIIIIII444444444444A244I222222222222444444444444444AA4444444444
IIIIIIII444444444444A244I222222222222444444444444444AI4444444444
IIIIIIII444444444444A244I222222222222444444444444444AA4444444444
IIIIIIII444444444444A244A222222222222444444444444444AA4444444444
IIIIIIII444444444444A244A222222222222444A44444444444AA4444444444
IIIIIIIA444444444444A244A222222222222444A44444444444AA4444444444
IIIIIIIA444444444444I244A222222222222444A44444444444AA4444444444
IIIIIIIA444444444444I244A222222222222444I44444444444AA4444444444
IIIIIIIA444444444444I244A222222222222444444444444444AA4444444444
IIIIIIIA444444444444I244I222222222222444444444444444AA4444444444
IIIIIIIA44444444A444I2444222222222222444444444444444AA4444444444
IIIIIIIIIIIIIIIIIIIIIIIIA2244444444444444IIIIIIIIIIIIIIIIIIIIIII
IIIIIIIA2444444444444444A2244444444444444IIIIIIIIIIIIIIIIIIIIIII
IIIIIIIA2444444444444444A22444444444444444IIIIIIIIIIIIIIIIIIIIII
IIIIIIIA2444444444444444I22444444444444444IIIIIIIIIIIIIIIIIIIIII
IIIIIIIA2444444444444444A22444444444444444IIIIIIIIIIIIIIIIIIIIII
IIIIIIIA2444444444444444A22444444444444444IIIIIIIIIIIA44IIIIIIII
IIA4444444444444444IIIIIIIIIIIIIIIIIIIIIIIIIIIIIIIIIIIIIIIIIIIII
IIIIIIIIIIIIIIIIIA24444444444IIIIIIIIIIIIIIIIIIIIIIIIIIIIIIIIIII
IIIIIIIIIIIIIIIIIA24444444444IIIIIIIIIIIIIIIIIIIIIA24444444444II
IIIIIIIIIIIIIIIIII24444444444IIIIIIIIIIIIIIIIIIIIIA24444444444II
IIIIIIIIIIIIIIIIII24444444444IIIIIIIIIIIIIIIIIIIIIA244444444A244
IIIIIIIIIIIIIIIIII244444A4444IIIIIIIIIIIIIIIIIIIIIA244444444A244
IIIIIIIIIIIIIIIIII244444I4444IIIIIIIIIIIIIIIIIIIIIA244444444A244
IIIIIIIIIIIIIIIIII244444A4444444444I4II4I444IIIIIIA244444444A244
IIIIIIIIIIIIIIIIII244444A444444444444II4I4444IIIIIA244444444A244
IIIIIIIIIIIIIIIIII244444A444444444444II4A4444I4444A244444444A244
IIIIIIIIIIIIIIIIII244444A4444444444444I4A4444I4444A244444444A244
IIIIIIIIIIIIIIIIII244444A4444444444444I4A444444444A244444444A244
IIIIIIIIIIIIIIIIII244444A444444444444444A444444444A244444444A244
IIIIIIIIIIIIIIIIII24A444A444444444444444A444444444A244444444A244
IIIIIIIIIIIIIIIIII24A444A244444444444444A444444444A244444444A244
IIIIIIIIIIIIIIIIII24A444A244444444444444A444444444A2A4444444A244
IIIIIIIIIIIIIIIIII24A244A244444444444444A444444444A2A4444444A244
IIIIIIIA4II44444I424A244A244444444444444A444444444A2A4444444A244
IIIIIIIA4II44444I424A244A244444444444444A444444444A2A2444444A244
IIIIIIIA4II444444424A244A244444444444444A444444444A2A2444444A244
IIIIIIIA4II444444424A244A244444444444444A444444444A2AA444444A244
IIIIIIIA444444444424A244A244444444444444A444444444A2AA444444A244
IIIIIIIA444444444424A244A244444444444444A244444444A2AA444444A244
IIIIIIIA444444444424A244A244444444444444I244444444A2AA444444A244
IIIIIIIA444444444424A244A2444444444444444244444444A2AA444444A244
IIIIIIIA444444444424A244A244444444444444A244444444A2AA444444A244
IIIIIIIA244444444424A244A244444444444444A244444444A2AA444444A244
IIIIIIIAI44444444424A244A244444444444444A244444444A2AA444444A244
IIIIIIIAI44444444424A244I244444444444444A244444444A2AA444444A244
IIIIIIIIIIIIIIIIIIIIIIIIA4444IIIIIIIIIIIIIIIIIIIIIIIIIIIIIIIIIII
IIIIIIIIIIIIIIIIIIIIA444A4444IIIIIIIIIIIIIIIIIIIIIIIIIIIIIIIIIII
IIIIIIIIIIIIIIIIIIIII444A4444IIIIIIIIIIIIIIIIIIIIIIIIIIIIIIIIIII
IIIIIIIIIIIIIIIIIIIII444I4444IIIIIIIIIIIIIIIIIIIIIIIIIIIIIIIIIII
IIIIIIIIIIIIIIIIIIIII444A24444I4I4I4II444IIIIIIIIIIIIIIIIIIIIIII
IIIIIIIIIIIIIIIIIIIIA244A24444I4I4444I444IIIIIIIIIIIIIIIIIIIIIII
IIIIIIIIIIIIIIIIIIIIA244A244444444444I444IIIIIIIIIIIIIIIIIIIIIII
IIIIIIIIIIIIIIIIIIIIA244A244444444444444444IIIIIIIIIIIIIIIIIIIII
IIIIIIIIIIIIIIIIIIIIA244A244444444444444444I44IIIIIIIIIIIIIIIIII
IIIIIIIIIIIIIIIIIIIIA244A244444444444444444444IIIIIIIIIIIIIIIIII
IIIIIIIIIIIIIIIIIIIIA244A244444444444444444444IIIIIIA44I4I4III4I
IIIIIIIIIIIIIIIIIIIAA244A244444444444444444444IIIIIIA44I4I4III4I
IIIIIIIIIIIIIIIIIIIAA244A244444444444444444444IIIIIIA444444III44
IIIIIIIA4II4444II44AA244A244444444444444444444IIIIIIA444444III44
IIIIIIIA4II4444II44AA244A244444444444444444444IIIIIIA244444I4444
IIIIIIIA44I44444444AA244A244444444444444444444IIIIIIA244444I4444
IIIIIIIA44I44444444AA244A244444444444444444444IIIIIIAA44444I4444
IIIIIIIA44I44444444AA244I244444444444444444444IIIIIIAA44444I4444
IIIIIIIA44I44444444AA244I244444444444444444444IIIIIIAA2444444444
IIIIIIIA44I44444444AA244A244444444444444444444IIIIIIAA2444444444
IIIIIIII44I44444444AA244A244444444444444444444IIIIIIAA2444444444
IIIIIIII44I44444444AA244I244444444444444444444IIIIIIAA2444444444
IIIIIIII44I44444444AA244I244444444444444444444IIIIIIAI2444444444
IIIIIIIIIIIIIIIIIIIIIIIIA4444IIIIIIIIIIIIIIIIIIIIIIIIIIIIIIIIIII
IIIIIIIIIIIIIIIIIIIIIIIIA4444IIIIIIIIIIIIIIIIIIIIIIIA44444444444
IIIIIIIIIIIIIIIIIIIIIIIII4444IIIIIIIIIIIIIIIIIIIIIIIA44444444444
IIIIIIIIIIIIIIIIIIIIIIIII4444IIIIIIIIIIIIIIIIIIIIIIII44444444444
IIIIIIIIIIIIIIIIIIIIIIIIA44444444II44II4444IIIIIIIIII44444444444
IIIIIIIIIIIIIIIIIIIIIIIIA444444444444444444IIIIIIIIII44444444444
IIIIIIIA4II4I44II4444444A444444444444444444IIIIIIIIII44444444444
IIIIIIIA4II4I44II4444444A244444444444444444IIIIIIIIII44444444444
IIIIIIIA4II4I44II444A444A244444444444444444IIIIIIIIII44444444444
IIIIIIIA4II4I44II444A444A244444444444444A44I4444444I444444444444
IIIIIIIA4II4I44II444A444I244444444444444A44I4444444I444444444444
IIIIIIIA4II4I44II444A444A224444444444444A44I4444444I444444444444
IIIIIIIA4II4I44II444A444AI24444444444444A44I4444444I444444444444
IIIIIIIA4II4I44II444A444A424444444444444A44I4444444I444444444444
IIIIIIIA4II4I44II444A444A424444444444444A4444444444I444444444444
IIIIIIIA4II4I44II444A444A424444444444444A44444444444444444444444
IIIIIIIA444444444444A444A424444444444444A44444444444444444444444
IIIIIIIA444444444444A444A224444444444444A44444444444444444444444
IIIIIIIA444444444444A444I224444444444444A44444444444444444444444
IIIIIIIA444444444444A444A224444444444444A44444444444444444444444
IIIIIIIA444444444444A444A224444444444444A24444444444444444444444
IIIIIIIA444444444444A444A224444444444444A24444444444A44444444444
IIIIIIIA444444444444A444A224444444444444A24444444444AA2444444444
IIIIIIII444444444444A444A224444444444444A24444444444AA2444444444
IIIIIIII444444444444A444A224444444444444A24444444444AI2444444444
IIIIIIII444444444444A444I224444444444444A24444444444AI2444444444
IIIIIIII444444444444A444A224444444444444A24444444444AI2444444444
IIIIIIII444444444444A444A224444444444444A24444444444A42444444444
IIIIIIII444444444444A444A224444444444444I24444444444A42444444444
IIIIIIII444444444444A444A224444444444444424444444444A42444444444
IIIIIIII444444444444A444I224444444444444424444444444A42444444444
IIIIIIII444444444444A444A224444444444444424444444444A42444444444
IIIIIIII444444444444A444A224444444444444A24444444444A42444444444
IIIIIIIA444444444444A444A224444444444444A24444444444A42444444444
IIIIIIIA444444444444A444I224444444444444A24444444444A42444444444
IIIIIIIIIIIIIIIIIIIIIIIIA2444444444444444IIIIIIIIIIIIIIIIIIIIIII
IIIIIIIIIIIIIIIIIIIIIIIIA244444444444444A2444444444444444IIIIIII
IIIIIIIIIIIIIIIIIIIIIIIIA244444444444444A24444444444444444IIIIII
IIIIIIIIIIIIIIIIIIIIIIIIA244444444444444A24444444444444444444III
IIIIIIIIIIIIIIIIIIIIA444A244444444444444A24444444444444444444III
IIIIIIIIIIIIIIIIIIIIA444A244444444444444A24444444444A44444444I4I
IIIIIIIIIIIIIIIIIIIIA444A244444444444444A24444444444A44444444I4A
IIIIIIIIIIIIIIIIIIIIA244A244444444444444A24444444444A44444444I4A
IIIIIIIIIIIIIIIIIIIIA244A244444444444444A24444444444A4444444444A
IIIIIIIA4II444444444A244A244444444444444A24444444444A4444444444A
IIIIIIIA4II444444444A244A244444444444444A24444444444A2444444444A
IIIIIIIA244444444444A244A244444444444444A24444444444A2444444444A
IIIIIIIA2444A4444444A244A244444444444444A24444444444A2444444444A
IIIIIIIA2444A4444444A244A244444444444444A24444444444AI444444444A
IIIIIIIA2444A4444444A244A244444444444444A24444444444AA244444444A
IIIIIIIA2444A4444444A244A244444444444444I24444444444AA244444444A
IIIIIIIA2444A4444444A244A244444444444444424444444444AA244444444A
IIIIIIIA2444A4444444A244A244444444444444A24444444444AA244444444A
IIIIIIII2444A4444444A244A244444444444444A24444444444AA244444444A
IIIIIIIIIIIIIIIIIIIIIIIIA4444444444IIIIIIIIIIIIIIIIIIIIIIIIIIIII
IIIIIIIIIIIIIIIIIIIIIIIIA4444444444III4I44II4IIIIIIIIIIIIIIIIIII
IIIIIIIIIIIIIIIIIIIIIIIIA4444444444III4IA44I4444444I44II4444IIII
IIIIIIIIIIIIIIIIIIIIIIIIA444444444444444A44I4444444I44II4444IIII
IIIIIIIIIIIIIIIIIIIIIIIIA444444444444444A44I44444444444I4444IIII
IIIIIIIIIIIIIIIIIIIIIIIIA444444444444444A44I4444444444444444IIII
IIIIIIIIIIIIIIIIIIIIA244A444444444444444A44I4444444444444444IIII
IIIIIIIIIIIIIIIIIIIIAI44A444444444444444A44I4444444444444444IIII
IIIIIIIIIIIIIIIIIIIIAI44A244444444444444A44I4444444444444444IIII
IIIIIIIIIIIIIIIIIIIIAI44I244444444444444A44I4444444444444444IIII
IIIIIIIIIIIIIIIIIIIIAI44A244444444444444A44I4444444444444444IIII
IIIIIIIIIIIIIIIIIIIIAI44A244444444444444A4444444444444444444IIII
IIIIIIIIIIIIIIIIIIIIAI44A244444444444444A44444444444A44444444I4I
IIIIIIIIIIIIIIIIIIIIA444A244444444444444A44444444444A44444444I4I
IIIIIIIIIIIIIIIIIIIIA444A244444444444444A44444444444I44444444I4I
IIA4444IIIIIIIIIIIIIA444A244444444444444A44444444444I44444444I4I
IIA4444IIIIIIIIIIIIIA444A244444444444444A44444444444A22444444444
IIA4444IIIIIIIIIIIIIA444I244444444444444A44444444444A22444444444
IIA4444IIIIIIIIIIIIIA444A244444444444444A44444444444A22444444444
IIA4444A4II4444II444A444A244444444444444A44444444444A22444444444
IIA4444A4II4444II444A444A244444444444444A44444444444I22444444444
IIA4444A4II4444II444A444A244444444444444A44444444444A22444444444
IIA4444A4II4444II444A444I244444444444444A44444444444A22444444444
IIA4444A4II4444II444A444A244444444444444A44444444444A22444444444
IIA4444A4II4444II444A244A244444444444444A44444444444A22444444444
IIA4444A4II4444II444I244A244444444444444A44444444444A22444444444
IIA4444A4II4444II444I244I244444444444444A44444444444A22444444444
IIA4444A4II4444II444II44I244444444444444A44444444444A22444444444
IIA4444A4II4444II444II44A244444444444444A44444444444A22444444444
IIA4444A4II4444444444444A244444444444444A44444444444A22444444444
IIA4444A4II4444444444444I244444444444444A44444444444A22444444444
IIA4444A4II4444444444444A244444444444444A44444444444A22444444444
IIA4444A4444444444444444A244444444444444A44444444444A22444444444
IIA4444A4444444444444444A244444444444444A44444444444AA2444444444
IIA4444A4444444444444444I244444444444444A44444444444AA2444444444
IIIIIIIIIIIIIIIIIIIIIIIIA2444444444444444IIIIIIIIIIIIIIIIIIIIIII
IIIIIIIIIIIIIIIIIIIIIIIIA2444444444444444IIIIIIIIIIIA24444444444
IIIIIIIA2444444444444444A2444444444444444IIIIIIIIIIIA24444444444
IIIIIIIA2444444444444444A2444444444444444IIIIIIIIIIIAA4444444444
IIIIIIIA2444444444444444A244444444444444444IIIIIIIIIAA4444444444
IIIIIIIA2444444444444444A2444444444444444444IIIIIIIIAA4444444444
IIIIIIIA244444444444A444A2444444444444444444IIIIIIIIAA4444444444
IIIIIIIA244444444444A444A244444444444444A4444I444IIIAA4444444444
IIIIIIIA244444444444A444A244444444444444A44444444I4IAA4444444444
IIIIIIIA244444444444A444I244444444444444A44444444I4IAA4444444444
IIIIIIIA244444444444A444A244444444444444A44444444I4IAA4444444444
IIIIIIIA244444444444A444A244444444444444A44444444I44AA4444444444
IIIIIIIA244444444444A444A244444444444444A44444444444AA4444444444
IIIIIIIA244444444444A224A244444444444444A44444444444AA4444444444
IIIIIIIA244444444444A224A244444444444444A24444444444AA4444444444
[MLOP] Prefetch Degree Mean: 9.89992
[MLOP] Prefetch Degree SD: 4.95744
[MLOP] Max Score Left Mean (%): 31.65862
[MLOP] Max Score Left SD (%): 21.17350
[MLOP] Max Score Right Mean (%): 74.51191
[MLOP] Max Score Right SD (%): 12.98630

Channel_0_RQ_row_buffer_hit 1426784
Channel_0_RQ_row_buffer_miss 6804783
Channel_0_WQ_row_buffer_hit 90136
Channel_0_WQ_row_buffer_miss 700232
Channel_0_WQ_full 0
Channel_0_dbus_congested 4422660

Channel_1_RQ_row_buffer_hit 1447653
Channel_1_RQ_row_buffer_miss 6896175
Channel_1_WQ_row_buffer_hit 92306
Channel_1_WQ_row_buffer_miss 704737
Channel_1_WQ_full 0
Channel_1_dbus_congested 4470934

avg_congested_cycle 10

DRAM_bw_pochs 2313007
DRAM_bw_level_0 1037374
DRAM_bw_level_1 620400
DRAM_bw_level_2 357333
DRAM_bw_level_3 297900
