*************************************************
   ChampSim Multicore Out-of-Order Simulator
   Last compiled: Apr 16 2025 16:07:36
*************************************************
parsing config file: /pref/Pythia/config/coop_pythia.ini
unable to parse section: , name: bool coop_rl_enable, value: true
unable to parse section: , name: coop_enable_adaptive_alpha, value: true

trace_0 /pref/Pythia/STREAMING/traces/streaming_phase1_core0.trace.xz
trace_1 /pref/Pythia/STREAMING/traces/streaming_phase1_core1.trace.xz
trace_2 /pref/Pythia/STREAMING/traces/streaming_phase1_core2.trace.xz
trace_3 /pref/Pythia/STREAMING/traces/streaming_phase1_core3.trace.xz
Initialize SHIP state
warmup_instructions 50000000
simulation_instructions 150000000
champsim_seed 8850
measure_ipc 0
measure_ipc_epoch 1000
measure_dram_bw 1
measure_dram_bw_epoch 256
measure_cache_acc 1
measure_cache_acc_epoch 1024
l1d_perfect 0
l2c_perfect 0
llc_perfect 0
l1d_semi_perfect 0
l2c_semi_perfect 0
llc_semi_perfect 0
semi_perfect_cache_page_buffer_size 64

num_cpus 4
cpu_freq 4000
dram_io_freq 2400
page_size 4096
block_size 64
max_read_per_cycle 8
max_fill_per_cycle 1
dram_channels 2
log2_dram_channels 1
dram_ranks 1
dram_banks 8
dram_rows 65536
dram_columns 128
dram_row_size 8
dram_size 8192
dram_pages 2097152
======= Prefetcher Knob Settings =======
coop_enable_multicore: 0
coop_enable_bw_throttling: 1
coop_rl_enable: 0
coop_rl_ipc_threshold: 
coop_rl_alpha_high_ipc: 0.05
coop_rl_alpha_low_ipc: 0.01
coop_rl_bw_threshold: 10
========================================
fetch_width 6
decode_width 6
exec_width 4
lq_width 2
sq_width 2
retire_width 4
scheduler_size 128
branch_mispredict_penalty 20
rob_size 256
lq_size 72
sq_size 56
num_instr_destinations_sparc 4
num_instr_destinations 2
num_instr_sources 4

itlb_set 16
itlb_way 8
itlb_rq_size 16
itlb_wq_size 16
itlb_pq_size 0
itlb_mshr_size 8
itlb_latency 1

dtlb_set 16
dtlb_way 4
dtlb_rq_size 16
dtlb_wq_size 16
dtlb_pq_size 0
dtlb_mshr_size 8
dtlb_latency 1

stlb_set 128
stlb_way 12
stlb_rq_size 32
stlb_wq_size 32
stlb_pq_size 0
stlb_mshr_size 16
stlb_latency 8

l1i_size 32
l1i_set 64
l1i_way 8
l1i_rq_size 64
l1i_wq_size 64
l1i_pq_size 8
l1i_mshr_size 8
l1i_latency 1

l1d_size 32
l1d_set 64
l1d_way 8
l1d_rq_size 64
l1d_wq_size 64
l1d_pq_size 32
l1d_mshr_size 16
l1d_latency 4

l2c_size 256
l2c_set 512
l2c_way 8
l2c_rq_size 128
l2c_wq_size 32
l2c_pq_size 128
l2c_mshr_size 128
l2c_latency 10

llc_size 8192
llc_set 8192
llc_way 16
llc_rq_size 256
llc_wq_size 512
llc_pq_size 128
llc_mshr_size 256
llc_latency 20

dram_channel_width 8
dram_wq_size 64
dram_rq_size 64
tRP 15
tRCD 15
tCAS 12.5
dram_dbus_turn_around_time 30
dram_write_high_wm 56
dram_write_low_wm 48
min_dram_writes_per_switch 16
dram_mtps 2400
dram_dbus_return_time 13

[CoopPythia Config]
 - Bandwidth-aware throttling: Enabled
 - Multicore cooperation: Disabled
 - RL Enabled: No
 - Adaptive Alpha: Enabled
 - IPC Threshold: 4
 - BW Threshold: 10
 - Alpha High: 0.05
 - Alpha Low: 0.01

Heartbeat CPU  2 instructions:    1000003 cycles:     315715 heartbeat IPC: 3.16742 cumulative IPC: 3.16742 (Simulation time: 0 hr 0 min 4 sec) 
Heartbeat CPU  1 instructions:    1000002 cycles:     606971 heartbeat IPC: 1.64753 cumulative IPC: 1.64753 (Simulation time: 0 hr 0 min 7 sec) 
Heartbeat CPU  3 instructions:    1000000 cycles:     627734 heartbeat IPC: 1.59303 cumulative IPC: 1.59303 (Simulation time: 0 hr 0 min 8 sec) 
Heartbeat CPU  0 instructions:    1000003 cycles:     628698 heartbeat IPC: 1.59059 cumulative IPC: 1.59059 (Simulation time: 0 hr 0 min 8 sec) 
Heartbeat CPU  2 instructions:    2000002 cycles:     640448 heartbeat IPC: 3.07945 cumulative IPC: 3.12282 (Simulation time: 0 hr 0 min 8 sec) 
Heartbeat CPU  2 instructions:    3000000 cycles:     951506 heartbeat IPC: 3.21483 cumulative IPC: 3.15290 (Simulation time: 0 hr 0 min 12 sec) 
Heartbeat CPU  1 instructions:    2000002 cycles:    1120986 heartbeat IPC: 1.94547 cumulative IPC: 1.78415 (Simulation time: 0 hr 0 min 14 sec) 
Heartbeat CPU  3 instructions:    2000000 cycles:    1153309 heartbeat IPC: 1.90268 cumulative IPC: 1.73414 (Simulation time: 0 hr 0 min 15 sec) 
Heartbeat CPU  0 instructions:    2000000 cycles:    1179248 heartbeat IPC: 1.81636 cumulative IPC: 1.69600 (Simulation time: 0 hr 0 min 15 sec) 
Heartbeat CPU  2 instructions:    4000000 cycles:    1262619 heartbeat IPC: 3.21427 cumulative IPC: 3.16802 (Simulation time: 0 hr 0 min 16 sec) 
Heartbeat CPU  2 instructions:    5000000 cycles:    1577623 heartbeat IPC: 3.17456 cumulative IPC: 3.16932 (Simulation time: 0 hr 0 min 21 sec) 
Heartbeat CPU  1 instructions:    3000001 cycles:    1634128 heartbeat IPC: 1.94878 cumulative IPC: 1.83584 (Simulation time: 0 hr 0 min 21 sec) 
Heartbeat CPU  3 instructions:    3000003 cycles:    1702958 heartbeat IPC: 1.81935 cumulative IPC: 1.76164 (Simulation time: 0 hr 0 min 22 sec) 
Heartbeat CPU  0 instructions:    3000002 cycles:    1703205 heartbeat IPC: 1.90856 cumulative IPC: 1.76139 (Simulation time: 0 hr 0 min 22 sec) 
Heartbeat CPU  2 instructions:    6000000 cycles:    1890858 heartbeat IPC: 3.19249 cumulative IPC: 3.17316 (Simulation time: 0 hr 0 min 25 sec) 
Heartbeat CPU  1 instructions:    4000000 cycles:    2118101 heartbeat IPC: 2.06623 cumulative IPC: 1.88848 (Simulation time: 0 hr 0 min 28 sec) 
Heartbeat CPU  3 instructions:    4000000 cycles:    2228667 heartbeat IPC: 1.90219 cumulative IPC: 1.79479 (Simulation time: 0 hr 0 min 29 sec) 
Heartbeat CPU  0 instructions:    4000000 cycles:    2230634 heartbeat IPC: 1.89599 cumulative IPC: 1.79321 (Simulation time: 0 hr 0 min 29 sec) 
Heartbeat CPU  1 instructions:    5000002 cycles:    2611001 heartbeat IPC: 2.02881 cumulative IPC: 1.91498 (Simulation time: 0 hr 0 min 33 sec) 
Heartbeat CPU  2 instructions:    7000000 cycles:    2695467 heartbeat IPC: 1.24284 cumulative IPC: 2.59695 (Simulation time: 0 hr 0 min 34 sec) 
Heartbeat CPU  3 instructions:    5000000 cycles:    2745430 heartbeat IPC: 1.93512 cumulative IPC: 1.82121 (Simulation time: 0 hr 0 min 35 sec) 
Heartbeat CPU  0 instructions:    5000002 cycles:    2817602 heartbeat IPC: 1.70367 cumulative IPC: 1.77456 (Simulation time: 0 hr 0 min 36 sec) 
Heartbeat CPU  1 instructions:    6000001 cycles:    3114432 heartbeat IPC: 1.98637 cumulative IPC: 1.92652 (Simulation time: 0 hr 0 min 40 sec) 
Heartbeat CPU  3 instructions:    6000000 cycles:    3124158 heartbeat IPC: 2.64042 cumulative IPC: 1.92052 (Simulation time: 0 hr 0 min 40 sec) 
Heartbeat CPU  0 instructions:    6000001 cycles:    3370660 heartbeat IPC: 1.80813 cumulative IPC: 1.78007 (Simulation time: 0 hr 0 min 42 sec) 
Heartbeat CPU  2 instructions:    8000000 cycles:    3374628 heartbeat IPC: 1.47240 cumulative IPC: 2.37063 (Simulation time: 0 hr 0 min 42 sec) 
Heartbeat CPU  3 instructions:    7000000 cycles:    3721624 heartbeat IPC: 1.67374 cumulative IPC: 1.88090 (Simulation time: 0 hr 0 min 46 sec) 
Heartbeat CPU  1 instructions:    7000002 cycles:    3745425 heartbeat IPC: 1.58481 cumulative IPC: 1.86895 (Simulation time: 0 hr 0 min 46 sec) 
Heartbeat CPU  0 instructions:    7000001 cycles:    3988120 heartbeat IPC: 1.61954 cumulative IPC: 1.75521 (Simulation time: 0 hr 0 min 49 sec) 
Heartbeat CPU  2 instructions:    9000001 cycles:    4024807 heartbeat IPC: 1.53804 cumulative IPC: 2.23613 (Simulation time: 0 hr 0 min 49 sec) 
Heartbeat CPU  3 instructions:    8000000 cycles:    4251515 heartbeat IPC: 1.88718 cumulative IPC: 1.88168 (Simulation time: 0 hr 0 min 52 sec) 
Heartbeat CPU  1 instructions:    8000000 cycles:    4321162 heartbeat IPC: 1.73690 cumulative IPC: 1.85135 (Simulation time: 0 hr 0 min 52 sec) 
Heartbeat CPU  0 instructions:    8000000 cycles:    4553900 heartbeat IPC: 1.76747 cumulative IPC: 1.75674 (Simulation time: 0 hr 0 min 55 sec) 
Heartbeat CPU  2 instructions:   10000003 cycles:    4659230 heartbeat IPC: 1.57624 cumulative IPC: 2.14628 (Simulation time: 0 hr 0 min 56 sec) 
Heartbeat CPU  3 instructions:    9000002 cycles:    4809495 heartbeat IPC: 1.79218 cumulative IPC: 1.87130 (Simulation time: 0 hr 0 min 58 sec) 
Heartbeat CPU  1 instructions:    9000002 cycles:    4882222 heartbeat IPC: 1.78234 cumulative IPC: 1.84342 (Simulation time: 0 hr 0 min 59 sec) 
Heartbeat CPU  0 instructions:    9000001 cycles:    5099512 heartbeat IPC: 1.83281 cumulative IPC: 1.76487 (Simulation time: 0 hr 1 min 1 sec) 
Heartbeat CPU  2 instructions:   11000002 cycles:    5184945 heartbeat IPC: 1.90217 cumulative IPC: 2.12153 (Simulation time: 0 hr 1 min 2 sec) 
Heartbeat CPU  3 instructions:   10000000 cycles:    5388911 heartbeat IPC: 1.72587 cumulative IPC: 1.85566 (Simulation time: 0 hr 1 min 5 sec) 
Heartbeat CPU  1 instructions:   10000000 cycles:    5487544 heartbeat IPC: 1.65201 cumulative IPC: 1.82231 (Simulation time: 0 hr 1 min 6 sec) 
Heartbeat CPU  2 instructions:   12000000 cycles:    5501102 heartbeat IPC: 3.16298 cumulative IPC: 2.18138 (Simulation time: 0 hr 1 min 6 sec) 
Heartbeat CPU  0 instructions:   10000003 cycles:    5664809 heartbeat IPC: 1.76899 cumulative IPC: 1.76529 (Simulation time: 0 hr 1 min 9 sec) 
Heartbeat CPU  2 instructions:   13000001 cycles:    5812517 heartbeat IPC: 3.21115 cumulative IPC: 2.23655 (Simulation time: 0 hr 1 min 11 sec) 
Heartbeat CPU  3 instructions:   11000000 cycles:    5944951 heartbeat IPC: 1.79843 cumulative IPC: 1.85031 (Simulation time: 0 hr 1 min 12 sec) 
Heartbeat CPU  1 instructions:   11000001 cycles:    6046216 heartbeat IPC: 1.78996 cumulative IPC: 1.81932 (Simulation time: 0 hr 1 min 14 sec) 
Heartbeat CPU  2 instructions:   14000000 cycles:    6127072 heartbeat IPC: 3.17909 cumulative IPC: 2.28494 (Simulation time: 0 hr 1 min 15 sec) 
Heartbeat CPU  0 instructions:   11000002 cycles:    6231527 heartbeat IPC: 1.76454 cumulative IPC: 1.76522 (Simulation time: 0 hr 1 min 16 sec) 
Heartbeat CPU  2 instructions:   15000003 cycles:    6439739 heartbeat IPC: 3.19830 cumulative IPC: 2.32929 (Simulation time: 0 hr 1 min 19 sec) 
Heartbeat CPU  3 instructions:   12000000 cycles:    6463923 heartbeat IPC: 1.92689 cumulative IPC: 1.85646 (Simulation time: 0 hr 1 min 20 sec) 
Heartbeat CPU  1 instructions:   12000000 cycles:    6549662 heartbeat IPC: 1.98631 cumulative IPC: 1.83216 (Simulation time: 0 hr 1 min 21 sec) 
Heartbeat CPU  2 instructions:   16000000 cycles:    6747210 heartbeat IPC: 3.25233 cumulative IPC: 2.37135 (Simulation time: 0 hr 1 min 24 sec) 
Heartbeat CPU  0 instructions:   12000000 cycles:    6757426 heartbeat IPC: 1.90150 cumulative IPC: 1.77582 (Simulation time: 0 hr 1 min 24 sec) 
Heartbeat CPU  3 instructions:   13000000 cycles:    6980467 heartbeat IPC: 1.93594 cumulative IPC: 1.86234 (Simulation time: 0 hr 1 min 27 sec) 
Heartbeat CPU  2 instructions:   17000001 cycles:    7054740 heartbeat IPC: 3.25172 cumulative IPC: 2.40973 (Simulation time: 0 hr 1 min 28 sec) 
Heartbeat CPU  1 instructions:   13000000 cycles:    7062376 heartbeat IPC: 1.95041 cumulative IPC: 1.84074 (Simulation time: 0 hr 1 min 28 sec) 
Heartbeat CPU  0 instructions:   13000001 cycles:    7282053 heartbeat IPC: 1.90612 cumulative IPC: 1.78521 (Simulation time: 0 hr 1 min 31 sec) 
Heartbeat CPU  2 instructions:   18000000 cycles:    7359865 heartbeat IPC: 3.27734 cumulative IPC: 2.44570 (Simulation time: 0 hr 1 min 32 sec) 
Heartbeat CPU  3 instructions:   14000000 cycles:    7479645 heartbeat IPC: 2.00329 cumulative IPC: 1.87175 (Simulation time: 0 hr 1 min 34 sec) 
Heartbeat CPU  1 instructions:   14000000 cycles:    7551448 heartbeat IPC: 2.04469 cumulative IPC: 1.85395 (Simulation time: 0 hr 1 min 35 sec) 
Heartbeat CPU  2 instructions:   19000001 cycles:    7665114 heartbeat IPC: 3.27602 cumulative IPC: 2.47876 (Simulation time: 0 hr 1 min 37 sec) 
Heartbeat CPU  0 instructions:   14000002 cycles:    7792278 heartbeat IPC: 1.95992 cumulative IPC: 1.79665 (Simulation time: 0 hr 1 min 39 sec) 
Heartbeat CPU  2 instructions:   20000000 cycles:    7970457 heartbeat IPC: 3.27500 cumulative IPC: 2.50927 (Simulation time: 0 hr 1 min 41 sec) 
Heartbeat CPU  3 instructions:   15000000 cycles:    8024563 heartbeat IPC: 1.83514 cumulative IPC: 1.86926 (Simulation time: 0 hr 1 min 42 sec) 
Heartbeat CPU  1 instructions:   15000001 cycles:    8055653 heartbeat IPC: 1.98332 cumulative IPC: 1.86205 (Simulation time: 0 hr 1 min 43 sec) 
Heartbeat CPU  2 instructions:   21000002 cycles:    8274202 heartbeat IPC: 3.29224 cumulative IPC: 2.53801 (Simulation time: 0 hr 1 min 46 sec) 
Heartbeat CPU  0 instructions:   15000001 cycles:    8304688 heartbeat IPC: 1.95156 cumulative IPC: 1.80621 (Simulation time: 0 hr 1 min 46 sec) 
Heartbeat CPU  3 instructions:   16000000 cycles:    8535908 heartbeat IPC: 1.95563 cumulative IPC: 1.87443 (Simulation time: 0 hr 1 min 49 sec) 
Heartbeat CPU  1 instructions:   16000000 cycles:    8563463 heartbeat IPC: 1.96924 cumulative IPC: 1.86840 (Simulation time: 0 hr 1 min 50 sec) 
Heartbeat CPU  2 instructions:   22000002 cycles:    8597158 heartbeat IPC: 3.09640 cumulative IPC: 2.55899 (Simulation time: 0 hr 1 min 50 sec) 
Heartbeat CPU  0 instructions:   16000000 cycles:    8806191 heartbeat IPC: 1.99400 cumulative IPC: 1.81690 (Simulation time: 0 hr 1 min 54 sec) 
Heartbeat CPU  2 instructions:   23000000 cycles:    8902382 heartbeat IPC: 3.27628 cumulative IPC: 2.58358 (Simulation time: 0 hr 1 min 55 sec) 
Heartbeat CPU  3 instructions:   17000003 cycles:    9047349 heartbeat IPC: 1.95527 cumulative IPC: 1.87900 (Simulation time: 0 hr 1 min 57 sec) 
Heartbeat CPU  1 instructions:   17000001 cycles:    9077874 heartbeat IPC: 1.94397 cumulative IPC: 1.87269 (Simulation time: 0 hr 1 min 57 sec) 
Heartbeat CPU  2 instructions:   24000000 cycles:    9211443 heartbeat IPC: 3.23561 cumulative IPC: 2.60545 (Simulation time: 0 hr 1 min 59 sec) 
Heartbeat CPU  0 instructions:   17000000 cycles:    9329909 heartbeat IPC: 1.90942 cumulative IPC: 1.82210 (Simulation time: 0 hr 2 min 1 sec) 
Heartbeat CPU  2 instructions:   25000000 cycles:    9540663 heartbeat IPC: 3.03748 cumulative IPC: 2.62036 (Simulation time: 0 hr 2 min 4 sec) 
Heartbeat CPU  3 instructions:   18000000 cycles:    9586815 heartbeat IPC: 1.85368 cumulative IPC: 1.87758 (Simulation time: 0 hr 2 min 5 sec) 
Heartbeat CPU  1 instructions:   18000000 cycles:    9624339 heartbeat IPC: 1.82994 cumulative IPC: 1.87026 (Simulation time: 0 hr 2 min 5 sec) 
Heartbeat CPU  0 instructions:   18000003 cycles:    9815916 heartbeat IPC: 2.05759 cumulative IPC: 1.83376 (Simulation time: 0 hr 2 min 8 sec) 
Heartbeat CPU  2 instructions:   26000001 cycles:    9843369 heartbeat IPC: 3.30354 cumulative IPC: 2.64137 (Simulation time: 0 hr 2 min 8 sec) 
Heartbeat CPU  3 instructions:   19000000 cycles:   10124626 heartbeat IPC: 1.85939 cumulative IPC: 1.87661 (Simulation time: 0 hr 2 min 12 sec) 
Heartbeat CPU  2 instructions:   27000003 cycles:   10147142 heartbeat IPC: 3.29194 cumulative IPC: 2.66085 (Simulation time: 0 hr 2 min 12 sec) 
Heartbeat CPU  1 instructions:   19000000 cycles:   10159122 heartbeat IPC: 1.86992 cumulative IPC: 1.87024 (Simulation time: 0 hr 2 min 13 sec) 
Heartbeat CPU  0 instructions:   19000001 cycles:   10293892 heartbeat IPC: 2.09215 cumulative IPC: 1.84575 (Simulation time: 0 hr 2 min 15 sec) 
Heartbeat CPU  2 instructions:   28000000 cycles:   10451754 heartbeat IPC: 3.28285 cumulative IPC: 2.67898 (Simulation time: 0 hr 2 min 17 sec) 
Heartbeat CPU  3 instructions:   20000000 cycles:   10656237 heartbeat IPC: 1.88107 cumulative IPC: 1.87684 (Simulation time: 0 hr 2 min 20 sec) 
Heartbeat CPU  1 instructions:   20000000 cycles:   10670905 heartbeat IPC: 1.95395 cumulative IPC: 1.87426 (Simulation time: 0 hr 2 min 20 sec) 
Heartbeat CPU  2 instructions:   29000003 cycles:   10756129 heartbeat IPC: 3.28543 cumulative IPC: 2.69614 (Simulation time: 0 hr 2 min 21 sec) 
Heartbeat CPU  0 instructions:   20000000 cycles:   10835741 heartbeat IPC: 1.84553 cumulative IPC: 1.84574 (Simulation time: 0 hr 2 min 22 sec) 
Heartbeat CPU  2 instructions:   30000000 cycles:   11060499 heartbeat IPC: 3.28547 cumulative IPC: 2.71236 (Simulation time: 0 hr 2 min 25 sec) 
Heartbeat CPU  3 instructions:   21000001 cycles:   11171527 heartbeat IPC: 1.94066 cumulative IPC: 1.87978 (Simulation time: 0 hr 2 min 27 sec) 
Heartbeat CPU  1 instructions:   21000001 cycles:   11198268 heartbeat IPC: 1.89623 cumulative IPC: 1.87529 (Simulation time: 0 hr 2 min 27 sec) 
Heartbeat CPU  0 instructions:   21000001 cycles:   11359547 heartbeat IPC: 1.90911 cumulative IPC: 1.84867 (Simulation time: 0 hr 2 min 30 sec) 
Heartbeat CPU  2 instructions:   31000001 cycles:   11368572 heartbeat IPC: 3.24599 cumulative IPC: 2.72682 (Simulation time: 0 hr 2 min 30 sec) 
Heartbeat CPU  2 instructions:   32000000 cycles:   11676551 heartbeat IPC: 3.24697 cumulative IPC: 2.74054 (Simulation time: 0 hr 2 min 34 sec) 
Heartbeat CPU  3 instructions:   22000002 cycles:   11696559 heartbeat IPC: 1.90465 cumulative IPC: 1.88090 (Simulation time: 0 hr 2 min 35 sec) 
Heartbeat CPU  1 instructions:   22000000 cycles:   11703519 heartbeat IPC: 1.97921 cumulative IPC: 1.87978 (Simulation time: 0 hr 2 min 35 sec) 
Heartbeat CPU  0 instructions:   22000000 cycles:   11872928 heartbeat IPC: 1.94787 cumulative IPC: 1.85295 (Simulation time: 0 hr 2 min 37 sec) 
Heartbeat CPU  2 instructions:   33000001 cycles:   11982777 heartbeat IPC: 3.26557 cumulative IPC: 2.75395 (Simulation time: 0 hr 2 min 39 sec) 
Heartbeat CPU  1 instructions:   23000002 cycles:   12200182 heartbeat IPC: 2.01344 cumulative IPC: 1.88522 (Simulation time: 0 hr 2 min 42 sec) 
Heartbeat CPU  3 instructions:   23000001 cycles:   12228293 heartbeat IPC: 1.88064 cumulative IPC: 1.88088 (Simulation time: 0 hr 2 min 42 sec) 
Heartbeat CPU  2 instructions:   34000002 cycles:   12292153 heartbeat IPC: 3.23232 cumulative IPC: 2.76599 (Simulation time: 0 hr 2 min 43 sec) 
Heartbeat CPU  0 instructions:   23000000 cycles:   12366753 heartbeat IPC: 2.02501 cumulative IPC: 1.85983 (Simulation time: 0 hr 2 min 44 sec) 
Heartbeat CPU  2 instructions:   35000002 cycles:   12596021 heartbeat IPC: 3.29090 cumulative IPC: 2.77866 (Simulation time: 0 hr 2 min 48 sec) 
Heartbeat CPU  1 instructions:   24000000 cycles:   12710099 heartbeat IPC: 1.96110 cumulative IPC: 1.88826 (Simulation time: 0 hr 2 min 49 sec) 
Heartbeat CPU  3 instructions:   24000000 cycles:   12724801 heartbeat IPC: 2.01406 cumulative IPC: 1.88608 (Simulation time: 0 hr 2 min 50 sec) 
Heartbeat CPU  0 instructions:   24000000 cycles:   12861651 heartbeat IPC: 2.02062 cumulative IPC: 1.86601 (Simulation time: 0 hr 2 min 52 sec) 
Heartbeat CPU  2 instructions:   36000000 cycles:   12905505 heartbeat IPC: 3.23118 cumulative IPC: 2.78951 (Simulation time: 0 hr 2 min 52 sec) 
Heartbeat CPU  1 instructions:   25000003 cycles:   13219682 heartbeat IPC: 1.96239 cumulative IPC: 1.89112 (Simulation time: 0 hr 2 min 57 sec) 
Heartbeat CPU  3 instructions:   25000000 cycles:   13227101 heartbeat IPC: 1.99084 cumulative IPC: 1.89006 (Simulation time: 0 hr 2 min 57 sec) 
Heartbeat CPU  0 instructions:   25000000 cycles:   13368589 heartbeat IPC: 1.97263 cumulative IPC: 1.87006 (Simulation time: 0 hr 2 min 58 sec) 
Heartbeat CPU  2 instructions:   37000001 cycles:   13422853 heartbeat IPC: 1.93294 cumulative IPC: 2.75649 (Simulation time: 0 hr 2 min 59 sec) 
Heartbeat CPU  1 instructions:   26000000 cycles:   13731882 heartbeat IPC: 1.95236 cumulative IPC: 1.89340 (Simulation time: 0 hr 3 min 3 sec) 
Heartbeat CPU  3 instructions:   26000002 cycles:   13748764 heartbeat IPC: 1.91695 cumulative IPC: 1.89108 (Simulation time: 0 hr 3 min 3 sec) 
Heartbeat CPU  0 instructions:   26000000 cycles:   13881249 heartbeat IPC: 1.95061 cumulative IPC: 1.87303 (Simulation time: 0 hr 3 min 5 sec) 
Heartbeat CPU  2 instructions:   38000000 cycles:   14039208 heartbeat IPC: 1.62244 cumulative IPC: 2.70671 (Simulation time: 0 hr 3 min 7 sec) 
Heartbeat CPU  1 instructions:   27000001 cycles:   14237171 heartbeat IPC: 1.97907 cumulative IPC: 1.89644 (Simulation time: 0 hr 3 min 9 sec) 
Heartbeat CPU  3 instructions:   27000001 cycles:   14278332 heartbeat IPC: 1.88833 cumulative IPC: 1.89098 (Simulation time: 0 hr 3 min 10 sec) 
Heartbeat CPU  0 instructions:   27000000 cycles:   14408247 heartbeat IPC: 1.89754 cumulative IPC: 1.87393 (Simulation time: 0 hr 3 min 11 sec) 
Heartbeat CPU  2 instructions:   39000001 cycles:   14594662 heartbeat IPC: 1.80033 cumulative IPC: 2.67221 (Simulation time: 0 hr 3 min 14 sec) 
Heartbeat CPU  1 instructions:   28000000 cycles:   14756560 heartbeat IPC: 1.92534 cumulative IPC: 1.89746 (Simulation time: 0 hr 3 min 16 sec) 
Heartbeat CPU  3 instructions:   28000000 cycles:   14800463 heartbeat IPC: 1.91523 cumulative IPC: 1.89183 (Simulation time: 0 hr 3 min 16 sec) 
Heartbeat CPU  0 instructions:   28000000 cycles:   14923654 heartbeat IPC: 1.94021 cumulative IPC: 1.87622 (Simulation time: 0 hr 3 min 18 sec) 
Heartbeat CPU  2 instructions:   40000000 cycles:   15143926 heartbeat IPC: 1.82062 cumulative IPC: 2.64132 (Simulation time: 0 hr 3 min 21 sec) 
Heartbeat CPU  1 instructions:   29000000 cycles:   15278004 heartbeat IPC: 1.91775 cumulative IPC: 1.89815 (Simulation time: 0 hr 3 min 23 sec) 
Heartbeat CPU  3 instructions:   29000000 cycles:   15330060 heartbeat IPC: 1.88823 cumulative IPC: 1.89171 (Simulation time: 0 hr 3 min 23 sec) 
Heartbeat CPU  0 instructions:   29000002 cycles:   15425112 heartbeat IPC: 1.99419 cumulative IPC: 1.88005 (Simulation time: 0 hr 3 min 24 sec) 
Heartbeat CPU  2 instructions:   41000001 cycles:   15756170 heartbeat IPC: 1.63334 cumulative IPC: 2.60216 (Simulation time: 0 hr 3 min 29 sec) 
Heartbeat CPU  1 instructions:   30000001 cycles:   15800916 heartbeat IPC: 1.91237 cumulative IPC: 1.89862 (Simulation time: 0 hr 3 min 29 sec) 
Heartbeat CPU  3 instructions:   30000002 cycles:   15831737 heartbeat IPC: 1.99332 cumulative IPC: 1.89493 (Simulation time: 0 hr 3 min 30 sec) 
Heartbeat CPU  0 instructions:   30000001 cycles:   15942554 heartbeat IPC: 1.93258 cumulative IPC: 1.88176 (Simulation time: 0 hr 3 min 31 sec) 
Heartbeat CPU  1 instructions:   31000001 cycles:   16298003 heartbeat IPC: 2.01172 cumulative IPC: 1.90207 (Simulation time: 0 hr 3 min 36 sec) 
Heartbeat CPU  3 instructions:   31000000 cycles:   16319441 heartbeat IPC: 2.05042 cumulative IPC: 1.89957 (Simulation time: 0 hr 3 min 36 sec) 
Heartbeat CPU  2 instructions:   42000000 cycles:   16357224 heartbeat IPC: 1.66374 cumulative IPC: 2.56767 (Simulation time: 0 hr 3 min 37 sec) 
Heartbeat CPU  0 instructions:   31000000 cycles:   16455942 heartbeat IPC: 1.94784 cumulative IPC: 1.88382 (Simulation time: 0 hr 3 min 38 sec) 
Heartbeat CPU  3 instructions:   32000000 cycles:   16803978 heartbeat IPC: 2.06383 cumulative IPC: 1.90431 (Simulation time: 0 hr 3 min 42 sec) 
Heartbeat CPU  1 instructions:   32000000 cycles:   16816104 heartbeat IPC: 1.93012 cumulative IPC: 1.90294 (Simulation time: 0 hr 3 min 42 sec) 
Heartbeat CPU  2 instructions:   43000001 cycles:   16960187 heartbeat IPC: 1.65848 cumulative IPC: 2.53535 (Simulation time: 0 hr 3 min 44 sec) 
Heartbeat CPU  0 instructions:   32000000 cycles:   16963548 heartbeat IPC: 1.97003 cumulative IPC: 1.88640 (Simulation time: 0 hr 3 min 44 sec) 
Heartbeat CPU  3 instructions:   33000003 cycles:   17292151 heartbeat IPC: 2.04846 cumulative IPC: 1.90838 (Simulation time: 0 hr 3 min 48 sec) 
Heartbeat CPU  1 instructions:   33000000 cycles:   17363548 heartbeat IPC: 1.82667 cumulative IPC: 1.90053 (Simulation time: 0 hr 3 min 49 sec) 
Heartbeat CPU  0 instructions:   33000000 cycles:   17477762 heartbeat IPC: 1.94472 cumulative IPC: 1.88811 (Simulation time: 0 hr 3 min 51 sec) 
Heartbeat CPU  2 instructions:   44000000 cycles:   17603865 heartbeat IPC: 1.55357 cumulative IPC: 2.49945 (Simulation time: 0 hr 3 min 52 sec) 
Heartbeat CPU  3 instructions:   34000003 cycles:   17810407 heartbeat IPC: 1.92955 cumulative IPC: 1.90900 (Simulation time: 0 hr 3 min 55 sec) 
Heartbeat CPU  1 instructions:   34000001 cycles:   17861978 heartbeat IPC: 2.00630 cumulative IPC: 1.90348 (Simulation time: 0 hr 3 min 55 sec) 
Heartbeat CPU  0 instructions:   34000003 cycles:   18008553 heartbeat IPC: 1.88399 cumulative IPC: 1.88799 (Simulation time: 0 hr 3 min 57 sec) 
Heartbeat CPU  2 instructions:   45000001 cycles:   18212293 heartbeat IPC: 1.64358 cumulative IPC: 2.47086 (Simulation time: 0 hr 4 min 0 sec) 
Heartbeat CPU  3 instructions:   35000000 cycles:   18318250 heartbeat IPC: 1.96911 cumulative IPC: 1.91066 (Simulation time: 0 hr 4 min 1 sec) 
Heartbeat CPU  1 instructions:   35000000 cycles:   18376915 heartbeat IPC: 1.94198 cumulative IPC: 1.90456 (Simulation time: 0 hr 4 min 2 sec) 
Heartbeat CPU  0 instructions:   35000000 cycles:   18519299 heartbeat IPC: 1.95791 cumulative IPC: 1.88992 (Simulation time: 0 hr 4 min 4 sec) 
Heartbeat CPU  2 instructions:   46000002 cycles:   18817115 heartbeat IPC: 1.65338 cumulative IPC: 2.44458 (Simulation time: 0 hr 4 min 8 sec) 
Heartbeat CPU  3 instructions:   36000000 cycles:   18824253 heartbeat IPC: 1.97627 cumulative IPC: 1.91243 (Simulation time: 0 hr 4 min 8 sec) 
Heartbeat CPU  1 instructions:   36000000 cycles:   18889325 heartbeat IPC: 1.95156 cumulative IPC: 1.90584 (Simulation time: 0 hr 4 min 8 sec) 
Heartbeat CPU  0 instructions:   36000000 cycles:   19019165 heartbeat IPC: 2.00054 cumulative IPC: 1.89283 (Simulation time: 0 hr 4 min 10 sec) 
Heartbeat CPU  3 instructions:   37000001 cycles:   19343156 heartbeat IPC: 1.92714 cumulative IPC: 1.91282 (Simulation time: 0 hr 4 min 14 sec) 
Heartbeat CPU  2 instructions:   47000001 cycles:   19408816 heartbeat IPC: 1.69004 cumulative IPC: 2.42158 (Simulation time: 0 hr 4 min 15 sec) 
Heartbeat CPU  1 instructions:   37000001 cycles:   19411381 heartbeat IPC: 1.91551 cumulative IPC: 1.90610 (Simulation time: 0 hr 4 min 15 sec) 
Heartbeat CPU  0 instructions:   37000003 cycles:   19553103 heartbeat IPC: 1.87288 cumulative IPC: 1.89228 (Simulation time: 0 hr 4 min 17 sec) 
Heartbeat CPU  3 instructions:   38000003 cycles:   19898605 heartbeat IPC: 1.80035 cumulative IPC: 1.90968 (Simulation time: 0 hr 4 min 21 sec) 
Heartbeat CPU  1 instructions:   38000000 cycles:   19975046 heartbeat IPC: 1.77410 cumulative IPC: 1.90237 (Simulation time: 0 hr 4 min 22 sec) 
Heartbeat CPU  2 instructions:   48000000 cycles:   19997400 heartbeat IPC: 1.69899 cumulative IPC: 2.40031 (Simulation time: 0 hr 4 min 22 sec) 
Heartbeat CPU  0 instructions:   38000002 cycles:   20103208 heartbeat IPC: 1.81783 cumulative IPC: 1.89025 (Simulation time: 0 hr 4 min 23 sec) 
Heartbeat CPU  3 instructions:   39000002 cycles:   20466442 heartbeat IPC: 1.76107 cumulative IPC: 1.90556 (Simulation time: 0 hr 4 min 28 sec) 
Heartbeat CPU  1 instructions:   39000003 cycles:   20520827 heartbeat IPC: 1.83224 cumulative IPC: 1.90051 (Simulation time: 0 hr 4 min 28 sec) 
Heartbeat CPU  2 instructions:   49000000 cycles:   20598616 heartbeat IPC: 1.66330 cumulative IPC: 2.37880 (Simulation time: 0 hr 4 min 29 sec) 
Heartbeat CPU  0 instructions:   39000003 cycles:   20654841 heartbeat IPC: 1.81280 cumulative IPC: 1.88818 (Simulation time: 0 hr 4 min 30 sec) 
Heartbeat CPU  1 instructions:   40000000 cycles:   21083143 heartbeat IPC: 1.77835 cumulative IPC: 1.89725 (Simulation time: 0 hr 4 min 34 sec) 
Heartbeat CPU  3 instructions:   40000000 cycles:   21190624 heartbeat IPC: 1.38087 cumulative IPC: 1.88763 (Simulation time: 0 hr 4 min 36 sec) 
Heartbeat CPU  2 instructions:   50000003 cycles:   21197258 heartbeat IPC: 1.67045 cumulative IPC: 2.35880 (Simulation time: 0 hr 4 min 36 sec) 
Heartbeat CPU  0 instructions:   40000000 cycles:   21204397 heartbeat IPC: 1.81965 cumulative IPC: 1.88640 (Simulation time: 0 hr 4 min 36 sec) 
Heartbeat CPU  1 instructions:   41000000 cycles:   21724802 heartbeat IPC: 1.55846 cumulative IPC: 1.88724 (Simulation time: 0 hr 4 min 41 sec) 
Heartbeat CPU  0 instructions:   41000002 cycles:   21755474 heartbeat IPC: 1.81463 cumulative IPC: 1.88458 (Simulation time: 0 hr 4 min 42 sec) 
Heartbeat CPU  2 instructions:   51000000 cycles:   21779436 heartbeat IPC: 1.71768 cumulative IPC: 0.04591 (Simulation time: 0 hr 4 min 42 sec) 
Heartbeat CPU  3 instructions:   41000000 cycles:   21871314 heartbeat IPC: 1.46910 cumulative IPC: 1.87460 (Simulation time: 0 hr 4 min 43 sec) 
Heartbeat CPU  1 instructions:   42000002 cycles:   22280441 heartbeat IPC: 1.79973 cumulative IPC: 1.88506 (Simulation time: 0 hr 4 min 48 sec) 
Heartbeat CPU  0 instructions:   42000001 cycles:   22307079 heartbeat IPC: 1.81289 cumulative IPC: 1.88281 (Simulation time: 0 hr 4 min 48 sec) 
Heartbeat CPU  2 instructions:   52000000 cycles:   22359787 heartbeat IPC: 1.72310 cumulative IPC: 0.08945 (Simulation time: 0 hr 4 min 49 sec) 
Heartbeat CPU  3 instructions:   42000003 cycles:   22503597 heartbeat IPC: 1.58158 cumulative IPC: 1.86637 (Simulation time: 0 hr 4 min 50 sec) 
Heartbeat CPU  1 instructions:   43000000 cycles:   22849880 heartbeat IPC: 1.75611 cumulative IPC: 1.88185 (Simulation time: 0 hr 4 min 54 sec) 
Heartbeat CPU  2 instructions:   53000001 cycles:   22950483 heartbeat IPC: 1.69292 cumulative IPC: 0.13072 (Simulation time: 0 hr 4 min 55 sec) 
Heartbeat CPU  0 instructions:   43000001 cycles:   22993558 heartbeat IPC: 1.45671 cumulative IPC: 1.87009 (Simulation time: 0 hr 4 min 56 sec) 
Heartbeat CPU  3 instructions:   43000001 cycles:   23081643 heartbeat IPC: 1.72996 cumulative IPC: 1.86295 (Simulation time: 0 hr 4 min 57 sec) 
Heartbeat CPU  1 instructions:   44000000 cycles:   23433947 heartbeat IPC: 1.71213 cumulative IPC: 1.87762 (Simulation time: 0 hr 5 min 1 sec) 
Heartbeat CPU  2 instructions:   54000000 cycles:   23529846 heartbeat IPC: 1.72603 cumulative IPC: 0.17000 (Simulation time: 0 hr 5 min 2 sec) 
Heartbeat CPU  0 instructions:   44000000 cycles:   23545332 heartbeat IPC: 1.81233 cumulative IPC: 1.86874 (Simulation time: 0 hr 5 min 2 sec) 
Heartbeat CPU  3 instructions:   44000000 cycles:   23651455 heartbeat IPC: 1.75496 cumulative IPC: 1.86035 (Simulation time: 0 hr 5 min 3 sec) 
Heartbeat CPU  1 instructions:   45000000 cycles:   24016119 heartbeat IPC: 1.71771 cumulative IPC: 1.87374 (Simulation time: 0 hr 5 min 7 sec) 
Heartbeat CPU  2 instructions:   55000001 cycles:   24127030 heartbeat IPC: 1.67453 cumulative IPC: 0.20724 (Simulation time: 0 hr 5 min 8 sec) 
Heartbeat CPU  3 instructions:   45000001 cycles:   24206564 heartbeat IPC: 1.80145 cumulative IPC: 1.85900 (Simulation time: 0 hr 5 min 9 sec) 
Heartbeat CPU  0 instructions:   45000000 cycles:   24262673 heartbeat IPC: 1.39404 cumulative IPC: 1.85470 (Simulation time: 0 hr 5 min 10 sec) 
Heartbeat CPU  1 instructions:   46000001 cycles:   24557888 heartbeat IPC: 1.84581 cumulative IPC: 1.87313 (Simulation time: 0 hr 5 min 14 sec) 
Heartbeat CPU  2 instructions:   56000000 cycles:   24683574 heartbeat IPC: 1.79680 cumulative IPC: 0.24308 (Simulation time: 0 hr 5 min 15 sec) 
Heartbeat CPU  3 instructions:   46000000 cycles:   24751224 heartbeat IPC: 1.83601 cumulative IPC: 1.85849 (Simulation time: 0 hr 5 min 16 sec) 
Heartbeat CPU  0 instructions:   46000000 cycles:   24900991 heartbeat IPC: 1.56662 cumulative IPC: 1.84732 (Simulation time: 0 hr 5 min 18 sec) 
Heartbeat CPU  2 instructions:   57000001 cycles:   25002760 heartbeat IPC: 3.13297 cumulative IPC: 0.27997 (Simulation time: 0 hr 5 min 19 sec) 
Heartbeat CPU  1 instructions:   47000001 cycles:   25100557 heartbeat IPC: 1.84274 cumulative IPC: 1.87247 (Simulation time: 0 hr 5 min 21 sec) 
Heartbeat CPU  3 instructions:   47000002 cycles:   25324503 heartbeat IPC: 1.74435 cumulative IPC: 1.85591 (Simulation time: 0 hr 5 min 24 sec) 
Heartbeat CPU  2 instructions:   58000001 cycles:   25379008 heartbeat IPC: 2.65782 cumulative IPC: 0.31522 (Simulation time: 0 hr 5 min 24 sec) 
Heartbeat CPU  0 instructions:   47000000 cycles:   25436510 heartbeat IPC: 1.86735 cumulative IPC: 1.84774 (Simulation time: 0 hr 5 min 25 sec) 
Heartbeat CPU  1 instructions:   48000000 cycles:   25636180 heartbeat IPC: 1.86698 cumulative IPC: 1.87235 (Simulation time: 0 hr 5 min 27 sec) 
Heartbeat CPU  3 instructions:   48000000 cycles:   25886120 heartbeat IPC: 1.78057 cumulative IPC: 1.85428 (Simulation time: 0 hr 5 min 30 sec) 
Heartbeat CPU  2 instructions:   59000003 cycles:   25976645 heartbeat IPC: 1.67326 cumulative IPC: 0.34647 (Simulation time: 0 hr 5 min 31 sec) 
Heartbeat CPU  0 instructions:   48000000 cycles:   25988513 heartbeat IPC: 1.81158 cumulative IPC: 1.84697 (Simulation time: 0 hr 5 min 31 sec) 
Heartbeat CPU  1 instructions:   49000001 cycles:   26183785 heartbeat IPC: 1.82614 cumulative IPC: 1.87139 (Simulation time: 0 hr 5 min 34 sec) 
Heartbeat CPU  3 instructions:   49000002 cycles:   26453310 heartbeat IPC: 1.76308 cumulative IPC: 1.85232 (Simulation time: 0 hr 5 min 37 sec) 
Heartbeat CPU  0 instructions:   49000003 cycles:   26530070 heartbeat IPC: 1.84653 cumulative IPC: 1.84696 (Simulation time: 0 hr 5 min 38 sec) 
Heartbeat CPU  2 instructions:   60000000 cycles:   26550450 heartbeat IPC: 1.74275 cumulative IPC: 0.37664 (Simulation time: 0 hr 5 min 38 sec) 
Heartbeat CPU  1 instructions:   50000000 cycles:   26748390 heartbeat IPC: 1.77115 cumulative IPC: 1.86927 (Simulation time: 0 hr 5 min 40 sec) 
Heartbeat CPU  3 instructions:   50000000 cycles:   27023359 heartbeat IPC: 1.75423 cumulative IPC: 1.85025 (Simulation time: 0 hr 5 min 44 sec) 
Heartbeat CPU  0 instructions:   50000003 cycles:   27097183 heartbeat IPC: 1.76332 cumulative IPC: 1.84521 (Simulation time: 0 hr 5 min 44 sec) 

Warmup complete CPU  0 instructions:   50000003 cycles:   27097183 (Simulation time: 0 hr 5 min 44 sec) 
Warmup complete CPU  1 instructions:   50595571 cycles:   27097182 (Simulation time: 0 hr 5 min 44 sec) 
Warmup complete CPU  2 instructions:   60915881 cycles:   27097183 (Simulation time: 0 hr 5 min 44 sec) 
Warmup complete CPU  3 instructions:   50143462 cycles:   27097183 (Simulation time: 0 hr 5 min 44 sec) 

Heartbeat CPU  2 instructions:   61000000 cycles:   27513173 heartbeat IPC: 1.03872 cumulative IPC: 0.20221 (Simulation time: 0 hr 5 min 45 sec) 
Heartbeat CPU  1 instructions:   51000000 cycles:   28799243 heartbeat IPC: 0.48760 cumulative IPC: 0.23761 (Simulation time: 0 hr 5 min 48 sec) 
Heartbeat CPU  2 instructions:   62000002 cycles:   30613319 heartbeat IPC: 0.32257 cumulative IPC: 0.30833 (Simulation time: 0 hr 5 min 53 sec) 
Heartbeat CPU  3 instructions:   51000000 cycles:   30691958 heartbeat IPC: 0.27258 cumulative IPC: 0.23827 (Simulation time: 0 hr 5 min 53 sec) 
Heartbeat CPU  0 instructions:   51000001 cycles:   31323870 heartbeat IPC: 0.23659 cumulative IPC: 0.23659 (Simulation time: 0 hr 5 min 55 sec) 
Heartbeat CPU  2 instructions:   63000003 cycles:   32185033 heartbeat IPC: 0.63625 cumulative IPC: 0.40963 (Simulation time: 0 hr 5 min 57 sec) 
Heartbeat CPU  1 instructions:   52000000 cycles:   33028012 heartbeat IPC: 0.23648 cumulative IPC: 0.23680 (Simulation time: 0 hr 5 min 59 sec) 
Heartbeat CPU  2 instructions:   64000000 cycles:   33727143 heartbeat IPC: 0.64846 cumulative IPC: 0.46518 (Simulation time: 0 hr 6 min 1 sec) 
Heartbeat CPU  3 instructions:   52000000 cycles:   34965893 heartbeat IPC: 0.23398 cumulative IPC: 0.23594 (Simulation time: 0 hr 6 min 5 sec) 
Heartbeat CPU  2 instructions:   65000003 cycles:   35462677 heartbeat IPC: 0.57619 cumulative IPC: 0.48821 (Simulation time: 0 hr 6 min 6 sec) 
Heartbeat CPU  0 instructions:   52000000 cycles:   35478983 heartbeat IPC: 0.24067 cumulative IPC: 0.23861 (Simulation time: 0 hr 6 min 6 sec) 
Heartbeat CPU  2 instructions:   66000001 cycles:   36905115 heartbeat IPC: 0.69327 cumulative IPC: 0.51837 (Simulation time: 0 hr 6 min 10 sec) 
Heartbeat CPU  1 instructions:   53000002 cycles:   37193528 heartbeat IPC: 0.24007 cumulative IPC: 0.23815 (Simulation time: 0 hr 6 min 11 sec) 
Heartbeat CPU  2 instructions:   67000002 cycles:   38134416 heartbeat IPC: 0.81347 cumulative IPC: 0.55124 (Simulation time: 0 hr 6 min 14 sec) 
Heartbeat CPU  3 instructions:   53000003 cycles:   39187986 heartbeat IPC: 0.23685 cumulative IPC: 0.23626 (Simulation time: 0 hr 6 min 17 sec) 
Heartbeat CPU  2 instructions:   68000000 cycles:   39304356 heartbeat IPC: 0.85474 cumulative IPC: 0.58032 (Simulation time: 0 hr 6 min 17 sec) 
Heartbeat CPU  0 instructions:   53000001 cycles:   39697562 heartbeat IPC: 0.23705 cumulative IPC: 0.23809 (Simulation time: 0 hr 6 min 18 sec) 
Heartbeat CPU  2 instructions:   69000000 cycles:   40773723 heartbeat IPC: 0.68057 cumulative IPC: 0.59109 (Simulation time: 0 hr 6 min 21 sec) 
Heartbeat CPU  1 instructions:   54000002 cycles:   41376086 heartbeat IPC: 0.23909 cumulative IPC: 0.23842 (Simulation time: 0 hr 6 min 23 sec) 
Heartbeat CPU  2 instructions:   70000001 cycles:   42483488 heartbeat IPC: 0.58488 cumulative IPC: 0.59040 (Simulation time: 0 hr 6 min 26 sec) 
Heartbeat CPU  3 instructions:   54000000 cycles:   43417424 heartbeat IPC: 0.23644 cumulative IPC: 0.23630 (Simulation time: 0 hr 6 min 28 sec) 
Heartbeat CPU  0 instructions:   54000001 cycles:   43855170 heartbeat IPC: 0.24052 cumulative IPC: 0.23869 (Simulation time: 0 hr 6 min 30 sec) 
Heartbeat CPU  2 instructions:   71000002 cycles:   44395125 heartbeat IPC: 0.52311 cumulative IPC: 0.58297 (Simulation time: 0 hr 6 min 31 sec) 
Heartbeat CPU  1 instructions:   55000002 cycles:   45565701 heartbeat IPC: 0.23869 cumulative IPC: 0.23848 (Simulation time: 0 hr 6 min 34 sec) 
Heartbeat CPU  2 instructions:   72000000 cycles:   46267641 heartbeat IPC: 0.53404 cumulative IPC: 0.57819 (Simulation time: 0 hr 6 min 36 sec) 
Heartbeat CPU  3 instructions:   55000001 cycles:   47655476 heartbeat IPC: 0.23596 cumulative IPC: 0.23623 (Simulation time: 0 hr 6 min 40 sec) 
Heartbeat CPU  0 instructions:   55000000 cycles:   47976936 heartbeat IPC: 0.24261 cumulative IPC: 0.23947 (Simulation time: 0 hr 6 min 40 sec) 
Heartbeat CPU  2 instructions:   73000002 cycles:   48199316 heartbeat IPC: 0.51769 cumulative IPC: 0.57265 (Simulation time: 0 hr 6 min 41 sec) 
Heartbeat CPU  1 instructions:   56000000 cycles:   49796381 heartbeat IPC: 0.23637 cumulative IPC: 0.23809 (Simulation time: 0 hr 6 min 45 sec) 
Heartbeat CPU  2 instructions:   74000000 cycles:   49884351 heartbeat IPC: 0.59346 cumulative IPC: 0.57419 (Simulation time: 0 hr 6 min 46 sec) 
Heartbeat CPU  3 instructions:   56000000 cycles:   51825054 heartbeat IPC: 0.23983 cumulative IPC: 0.23684 (Simulation time: 0 hr 6 min 51 sec) 
Heartbeat CPU  2 instructions:   75000001 cycles:   51827432 heartbeat IPC: 0.51465 cumulative IPC: 0.56951 (Simulation time: 0 hr 6 min 51 sec) 
Heartbeat CPU  0 instructions:   56000000 cycles:   52192651 heartbeat IPC: 0.23721 cumulative IPC: 0.23909 (Simulation time: 0 hr 6 min 51 sec) 
Heartbeat CPU  1 instructions:   57000001 cycles:   53913346 heartbeat IPC: 0.24290 cumulative IPC: 0.23883 (Simulation time: 0 hr 6 min 55 sec) 
Heartbeat CPU  3 instructions:   57000000 cycles:   55829409 heartbeat IPC: 0.24973 cumulative IPC: 0.23864 (Simulation time: 0 hr 6 min 59 sec) 
Heartbeat CPU  0 instructions:   57000001 cycles:   56335191 heartbeat IPC: 0.24140 cumulative IPC: 0.23941 (Simulation time: 0 hr 7 min 0 sec) 
Heartbeat CPU  2 instructions:   76000000 cycles:   57102087 heartbeat IPC: 0.18959 cumulative IPC: 0.50272 (Simulation time: 0 hr 7 min 2 sec) 
Heartbeat CPU  1 instructions:   58000001 cycles:   58034226 heartbeat IPC: 0.24267 cumulative IPC: 0.23934 (Simulation time: 0 hr 7 min 4 sec) 
Heartbeat CPU  3 instructions:   58000001 cycles:   59925701 heartbeat IPC: 0.24412 cumulative IPC: 0.23932 (Simulation time: 0 hr 7 min 8 sec) 
Heartbeat CPU  0 instructions:   58000002 cycles:   60421650 heartbeat IPC: 0.24471 cumulative IPC: 0.24006 (Simulation time: 0 hr 7 min 9 sec) 
Heartbeat CPU  1 instructions:   59000002 cycles:   62153469 heartbeat IPC: 0.24276 cumulative IPC: 0.23974 (Simulation time: 0 hr 7 min 13 sec) 
Heartbeat CPU  2 instructions:   77000001 cycles:   62284103 heartbeat IPC: 0.19298 cumulative IPC: 0.45711 (Simulation time: 0 hr 7 min 13 sec) 
Heartbeat CPU  3 instructions:   59000003 cycles:   64179612 heartbeat IPC: 0.23508 cumulative IPC: 0.23883 (Simulation time: 0 hr 7 min 17 sec) 
Heartbeat CPU  0 instructions:   59000002 cycles:   64576126 heartbeat IPC: 0.24070 cumulative IPC: 0.24013 (Simulation time: 0 hr 7 min 18 sec) 
Heartbeat CPU  1 instructions:   60000000 cycles:   66436030 heartbeat IPC: 0.23350 cumulative IPC: 0.23906 (Simulation time: 0 hr 7 min 22 sec) 
Heartbeat CPU  2 instructions:   78000003 cycles:   67367950 heartbeat IPC: 0.19670 cumulative IPC: 0.42423 (Simulation time: 0 hr 7 min 24 sec) 
Heartbeat CPU  3 instructions:   60000000 cycles:   68348065 heartbeat IPC: 0.23990 cumulative IPC: 0.23894 (Simulation time: 0 hr 7 min 26 sec) 
Heartbeat CPU  0 instructions:   60000000 cycles:   68694530 heartbeat IPC: 0.24281 cumulative IPC: 0.24040 (Simulation time: 0 hr 7 min 26 sec) 
Heartbeat CPU  1 instructions:   61000003 cycles:   70587087 heartbeat IPC: 0.24090 cumulative IPC: 0.23924 (Simulation time: 0 hr 7 min 30 sec) 
Heartbeat CPU  2 instructions:   79000000 cycles:   72520736 heartbeat IPC: 0.19407 cumulative IPC: 0.39812 (Simulation time: 0 hr 7 min 34 sec) 
Heartbeat CPU  3 instructions:   61000003 cycles:   72634501 heartbeat IPC: 0.23329 cumulative IPC: 0.23841 (Simulation time: 0 hr 7 min 35 sec) 
Heartbeat CPU  0 instructions:   61000001 cycles:   72912219 heartbeat IPC: 0.23710 cumulative IPC: 0.24010 (Simulation time: 0 hr 7 min 35 sec) 
Heartbeat CPU  1 instructions:   62000002 cycles:   74773985 heartbeat IPC: 0.23884 cumulative IPC: 0.23920 (Simulation time: 0 hr 7 min 39 sec) 
Heartbeat CPU  3 instructions:   62000002 cycles:   76835798 heartbeat IPC: 0.23802 cumulative IPC: 0.23838 (Simulation time: 0 hr 7 min 43 sec) 
Heartbeat CPU  0 instructions:   62000001 cycles:   76985884 heartbeat IPC: 0.24548 cumulative IPC: 0.24054 (Simulation time: 0 hr 7 min 44 sec) 
Heartbeat CPU  2 instructions:   80000000 cycles:   77609924 heartbeat IPC: 0.19649 cumulative IPC: 0.37781 (Simulation time: 0 hr 7 min 45 sec) 
Heartbeat CPU  0 instructions:   63000001 cycles:   78131295 heartbeat IPC: 0.87305 cumulative IPC: 0.25473 (Simulation time: 0 hr 7 min 47 sec) 
Heartbeat CPU  1 instructions:   63000003 cycles:   78922618 heartbeat IPC: 0.24104 cumulative IPC: 0.23935 (Simulation time: 0 hr 7 min 50 sec) 
Heartbeat CPU  0 instructions:   64000000 cycles:   79024462 heartbeat IPC: 1.11961 cumulative IPC: 0.26961 (Simulation time: 0 hr 7 min 50 sec) 
Heartbeat CPU  0 instructions:   65000000 cycles:   79974955 heartbeat IPC: 1.05209 cumulative IPC: 0.28367 (Simulation time: 0 hr 7 min 53 sec) 
Heartbeat CPU  0 instructions:   66000003 cycles:   80854128 heartbeat IPC: 1.13744 cumulative IPC: 0.29764 (Simulation time: 0 hr 7 min 56 sec) 
Heartbeat CPU  3 instructions:   63000001 cycles:   80998888 heartbeat IPC: 0.24021 cumulative IPC: 0.23852 (Simulation time: 0 hr 7 min 57 sec) 
Heartbeat CPU  0 instructions:   67000001 cycles:   81703466 heartbeat IPC: 1.17739 cumulative IPC: 0.31132 (Simulation time: 0 hr 7 min 59 sec) 
Heartbeat CPU  0 instructions:   68000000 cycles:   82538891 heartbeat IPC: 1.19699 cumulative IPC: 0.32467 (Simulation time: 0 hr 8 min 2 sec) 
Heartbeat CPU  2 instructions:   81000000 cycles:   82809166 heartbeat IPC: 0.19234 cumulative IPC: 0.36050 (Simulation time: 0 hr 8 min 3 sec) 
Heartbeat CPU  1 instructions:   64000000 cycles:   83009100 heartbeat IPC: 0.24471 cumulative IPC: 0.23974 (Simulation time: 0 hr 8 min 3 sec) 
Heartbeat CPU  3 instructions:   64000000 cycles:   85051558 heartbeat IPC: 0.24675 cumulative IPC: 0.23909 (Simulation time: 0 hr 8 min 7 sec) 
Heartbeat CPU  0 instructions:   69000003 cycles:   86242980 heartbeat IPC: 0.26997 cumulative IPC: 0.32124 (Simulation time: 0 hr 8 min 10 sec) 
Heartbeat CPU  1 instructions:   65000000 cycles:   87115991 heartbeat IPC: 0.24349 cumulative IPC: 0.24000 (Simulation time: 0 hr 8 min 12 sec) 
Heartbeat CPU  2 instructions:   82000000 cycles:   87975917 heartbeat IPC: 0.19355 cumulative IPC: 0.34633 (Simulation time: 0 hr 8 min 14 sec) 
Heartbeat CPU  3 instructions:   65000000 cycles:   89200532 heartbeat IPC: 0.24102 cumulative IPC: 0.23922 (Simulation time: 0 hr 8 min 16 sec) 
Heartbeat CPU  1 instructions:   66000002 cycles:   89858730 heartbeat IPC: 0.36460 cumulative IPC: 0.24544 (Simulation time: 0 hr 8 min 18 sec) 
Heartbeat CPU  0 instructions:   70000001 cycles:   90332783 heartbeat IPC: 0.24451 cumulative IPC: 0.31628 (Simulation time: 0 hr 8 min 20 sec) 
Heartbeat CPU  1 instructions:   67000003 cycles:   90740948 heartbeat IPC: 1.13351 cumulative IPC: 0.25775 (Simulation time: 0 hr 8 min 21 sec) 
Heartbeat CPU  1 instructions:   68000000 cycles:   91589197 heartbeat IPC: 1.17890 cumulative IPC: 0.26987 (Simulation time: 0 hr 8 min 24 sec) 
Heartbeat CPU  1 instructions:   69000003 cycles:   92420761 heartbeat IPC: 1.20256 cumulative IPC: 0.28174 (Simulation time: 0 hr 8 min 27 sec) 
Heartbeat CPU  2 instructions:   83000002 cycles:   93115326 heartbeat IPC: 0.19458 cumulative IPC: 0.33452 (Simulation time: 0 hr 8 min 29 sec) 
Heartbeat CPU  3 instructions:   66000002 cycles:   93203008 heartbeat IPC: 0.24985 cumulative IPC: 0.23987 (Simulation time: 0 hr 8 min 29 sec) 
Heartbeat CPU  0 instructions:   71000000 cycles:   94373980 heartbeat IPC: 0.24745 cumulative IPC: 0.31214 (Simulation time: 0 hr 8 min 31 sec) 
Heartbeat CPU  1 instructions:   70000001 cycles:   94784342 heartbeat IPC: 0.42309 cumulative IPC: 0.28668 (Simulation time: 0 hr 8 min 32 sec) 
Heartbeat CPU  2 instructions:   84000000 cycles:   97174706 heartbeat IPC: 0.24634 cumulative IPC: 0.32941 (Simulation time: 0 hr 8 min 38 sec) 
Heartbeat CPU  3 instructions:   67000003 cycles:   97315160 heartbeat IPC: 0.24318 cumulative IPC: 0.24006 (Simulation time: 0 hr 8 min 38 sec) 
Heartbeat CPU  0 instructions:   72000000 cycles:   98428891 heartbeat IPC: 0.24661 cumulative IPC: 0.30842 (Simulation time: 0 hr 8 min 40 sec) 
Heartbeat CPU  1 instructions:   71000000 cycles:   98911247 heartbeat IPC: 0.24231 cumulative IPC: 0.28413 (Simulation time: 0 hr 8 min 41 sec) 
Heartbeat CPU  3 instructions:   68000000 cycles:  101314935 heartbeat IPC: 0.25001 cumulative IPC: 0.24060 (Simulation time: 0 hr 8 min 47 sec) 
Heartbeat CPU  2 instructions:   85000000 cycles:  101316995 heartbeat IPC: 0.24141 cumulative IPC: 0.32450 (Simulation time: 0 hr 8 min 47 sec) 
Heartbeat CPU  0 instructions:   73000001 cycles:  102518855 heartbeat IPC: 0.24450 cumulative IPC: 0.30495 (Simulation time: 0 hr 8 min 49 sec) 
Heartbeat CPU  1 instructions:   72000000 cycles:  102991331 heartbeat IPC: 0.24509 cumulative IPC: 0.28203 (Simulation time: 0 hr 8 min 50 sec) 
Heartbeat CPU  0 instructions:   74000003 cycles:  104888033 heartbeat IPC: 0.42209 cumulative IPC: 0.30852 (Simulation time: 0 hr 8 min 55 sec) 
Heartbeat CPU  3 instructions:   69000001 cycles:  105460092 heartbeat IPC: 0.24125 cumulative IPC: 0.24063 (Simulation time: 0 hr 8 min 56 sec) 
Heartbeat CPU  2 instructions:   86000001 cycles:  106385338 heartbeat IPC: 0.19730 cumulative IPC: 0.31637 (Simulation time: 0 hr 8 min 58 sec) 
Heartbeat CPU  1 instructions:   73000002 cycles:  107176117 heartbeat IPC: 0.23896 cumulative IPC: 0.27978 (Simulation time: 0 hr 9 min 0 sec) 
Heartbeat CPU  0 instructions:   75000000 cycles:  108081698 heartbeat IPC: 0.31312 cumulative IPC: 0.30870 (Simulation time: 0 hr 9 min 2 sec) 
Heartbeat CPU  3 instructions:   70000003 cycles:  109632376 heartbeat IPC: 0.23968 cumulative IPC: 0.24058 (Simulation time: 0 hr 9 min 6 sec) 
Heartbeat CPU  1 instructions:   74000000 cycles:  111206079 heartbeat IPC: 0.24814 cumulative IPC: 0.27826 (Simulation time: 0 hr 9 min 9 sec) 
Heartbeat CPU  2 instructions:   87000002 cycles:  111603020 heartbeat IPC: 0.19166 cumulative IPC: 0.30867 (Simulation time: 0 hr 9 min 10 sec) 
Heartbeat CPU  0 instructions:   76000000 cycles:  112347573 heartbeat IPC: 0.23442 cumulative IPC: 0.30498 (Simulation time: 0 hr 9 min 11 sec) 
Heartbeat CPU  3 instructions:   71000000 cycles:  113723248 heartbeat IPC: 0.24445 cumulative IPC: 0.24077 (Simulation time: 0 hr 9 min 14 sec) 
Heartbeat CPU  1 instructions:   75000000 cycles:  115305890 heartbeat IPC: 0.24391 cumulative IPC: 0.27667 (Simulation time: 0 hr 9 min 18 sec) 
Heartbeat CPU  2 instructions:   88000000 cycles:  115885847 heartbeat IPC: 0.23349 cumulative IPC: 0.30504 (Simulation time: 0 hr 9 min 19 sec) 
Heartbeat CPU  0 instructions:   77000000 cycles:  116549676 heartbeat IPC: 0.23798 cumulative IPC: 0.30184 (Simulation time: 0 hr 9 min 21 sec) 
Heartbeat CPU  3 instructions:   72000000 cycles:  117825239 heartbeat IPC: 0.24378 cumulative IPC: 0.24090 (Simulation time: 0 hr 9 min 24 sec) 
Heartbeat CPU  1 instructions:   76000000 cycles:  119411643 heartbeat IPC: 0.24356 cumulative IPC: 0.27519 (Simulation time: 0 hr 9 min 27 sec) 
Heartbeat CPU  2 instructions:   89000000 cycles:  120601087 heartbeat IPC: 0.21208 cumulative IPC: 0.30035 (Simulation time: 0 hr 9 min 29 sec) 
Heartbeat CPU  0 instructions:   78000002 cycles:  120741139 heartbeat IPC: 0.23858 cumulative IPC: 0.29900 (Simulation time: 0 hr 9 min 30 sec) 
Heartbeat CPU  3 instructions:   73000003 cycles:  121969637 heartbeat IPC: 0.24129 cumulative IPC: 0.24092 (Simulation time: 0 hr 9 min 32 sec) 
Heartbeat CPU  1 instructions:   77000001 cycles:  123513112 heartbeat IPC: 0.24382 cumulative IPC: 0.27386 (Simulation time: 0 hr 9 min 36 sec) 
Heartbeat CPU  0 instructions:   79000003 cycles:  124859981 heartbeat IPC: 0.24279 cumulative IPC: 0.29664 (Simulation time: 0 hr 9 min 38 sec) 
Heartbeat CPU  2 instructions:   90000001 cycles:  125644131 heartbeat IPC: 0.19829 cumulative IPC: 0.29513 (Simulation time: 0 hr 9 min 40 sec) 
Heartbeat CPU  3 instructions:   74000000 cycles:  126038478 heartbeat IPC: 0.24577 cumulative IPC: 0.24112 (Simulation time: 0 hr 9 min 41 sec) 
Heartbeat CPU  1 instructions:   78000003 cycles:  127852071 heartbeat IPC: 0.23047 cumulative IPC: 0.27199 (Simulation time: 0 hr 9 min 45 sec) 
Heartbeat CPU  0 instructions:   80000000 cycles:  129129718 heartbeat IPC: 0.23421 cumulative IPC: 0.29402 (Simulation time: 0 hr 9 min 47 sec) 
Heartbeat CPU  3 instructions:   75000000 cycles:  130132430 heartbeat IPC: 0.24426 cumulative IPC: 0.24124 (Simulation time: 0 hr 9 min 49 sec) 
Heartbeat CPU  2 instructions:   91000003 cycles:  130679543 heartbeat IPC: 0.19859 cumulative IPC: 0.29044 (Simulation time: 0 hr 9 min 50 sec) 
Heartbeat CPU  1 instructions:   79000003 cycles:  132123399 heartbeat IPC: 0.23412 cumulative IPC: 0.27045 (Simulation time: 0 hr 9 min 53 sec) 
Heartbeat CPU  0 instructions:   81000003 cycles:  133354541 heartbeat IPC: 0.23670 cumulative IPC: 0.29174 (Simulation time: 0 hr 9 min 56 sec) 
Heartbeat CPU  3 instructions:   76000000 cycles:  134370820 heartbeat IPC: 0.23594 cumulative IPC: 0.24103 (Simulation time: 0 hr 9 min 58 sec) 
Heartbeat CPU  2 instructions:   92000000 cycles:  135823477 heartbeat IPC: 0.19440 cumulative IPC: 0.28589 (Simulation time: 0 hr 10 min 1 sec) 
Heartbeat CPU  1 instructions:   80000000 cycles:  136315327 heartbeat IPC: 0.23855 cumulative IPC: 0.26923 (Simulation time: 0 hr 10 min 2 sec) 
Heartbeat CPU  0 instructions:   82000001 cycles:  137480820 heartbeat IPC: 0.24235 cumulative IPC: 0.28990 (Simulation time: 0 hr 10 min 5 sec) 
Heartbeat CPU  3 instructions:   77000000 cycles:  138560628 heartbeat IPC: 0.23867 cumulative IPC: 0.24094 (Simulation time: 0 hr 10 min 7 sec) 
Heartbeat CPU  1 instructions:   81000003 cycles:  140544485 heartbeat IPC: 0.23645 cumulative IPC: 0.26800 (Simulation time: 0 hr 10 min 11 sec) 
Heartbeat CPU  2 instructions:   93000001 cycles:  140919445 heartbeat IPC: 0.19623 cumulative IPC: 0.28188 (Simulation time: 0 hr 10 min 12 sec) 
Heartbeat CPU  0 instructions:   83000000 cycles:  141688827 heartbeat IPC: 0.23764 cumulative IPC: 0.28798 (Simulation time: 0 hr 10 min 13 sec) 
Heartbeat CPU  3 instructions:   78000000 cycles:  142749184 heartbeat IPC: 0.23875 cumulative IPC: 0.24087 (Simulation time: 0 hr 10 min 16 sec) 
Heartbeat CPU  1 instructions:   82000000 cycles:  144746833 heartbeat IPC: 0.23796 cumulative IPC: 0.26693 (Simulation time: 0 hr 10 min 20 sec) 
Heartbeat CPU  0 instructions:   84000000 cycles:  145846340 heartbeat IPC: 0.24053 cumulative IPC: 0.28632 (Simulation time: 0 hr 10 min 22 sec) 
Heartbeat CPU  2 instructions:   94000002 cycles:  145981206 heartbeat IPC: 0.19756 cumulative IPC: 0.27829 (Simulation time: 0 hr 10 min 22 sec) 
Heartbeat CPU  3 instructions:   79000000 cycles:  146989819 heartbeat IPC: 0.23581 cumulative IPC: 0.24069 (Simulation time: 0 hr 10 min 24 sec) 
Heartbeat CPU  1 instructions:   83000003 cycles:  148858272 heartbeat IPC: 0.24322 cumulative IPC: 0.26613 (Simulation time: 0 hr 10 min 28 sec) 
Heartbeat CPU  0 instructions:   85000000 cycles:  150166829 heartbeat IPC: 0.23146 cumulative IPC: 0.28439 (Simulation time: 0 hr 10 min 31 sec) 
Heartbeat CPU  2 instructions:   95000001 cycles:  151026128 heartbeat IPC: 0.19822 cumulative IPC: 0.27503 (Simulation time: 0 hr 10 min 33 sec) 
Heartbeat CPU  3 instructions:   80000000 cycles:  151164269 heartbeat IPC: 0.23955 cumulative IPC: 0.24065 (Simulation time: 0 hr 10 min 33 sec) 
Heartbeat CPU  1 instructions:   84000000 cycles:  153205928 heartbeat IPC: 0.23001 cumulative IPC: 0.26489 (Simulation time: 0 hr 10 min 37 sec) 
Heartbeat CPU  0 instructions:   86000003 cycles:  154273675 heartbeat IPC: 0.24350 cumulative IPC: 0.28307 (Simulation time: 0 hr 10 min 39 sec) 
Heartbeat CPU  3 instructions:   81000002 cycles:  155381261 heartbeat IPC: 0.23714 cumulative IPC: 0.24053 (Simulation time: 0 hr 10 min 42 sec) 
Heartbeat CPU  2 instructions:   96000000 cycles:  156061119 heartbeat IPC: 0.19861 cumulative IPC: 0.27205 (Simulation time: 0 hr 10 min 43 sec) 
Heartbeat CPU  1 instructions:   85000002 cycles:  157413130 heartbeat IPC: 0.23769 cumulative IPC: 0.26401 (Simulation time: 0 hr 10 min 46 sec) 
Heartbeat CPU  0 instructions:   87000003 cycles:  158547823 heartbeat IPC: 0.23396 cumulative IPC: 0.28147 (Simulation time: 0 hr 10 min 48 sec) 
Heartbeat CPU  3 instructions:   82000002 cycles:  159542946 heartbeat IPC: 0.24029 cumulative IPC: 0.24053 (Simulation time: 0 hr 10 min 50 sec) 
Heartbeat CPU  2 instructions:   97000000 cycles:  161060311 heartbeat IPC: 0.20003 cumulative IPC: 0.26936 (Simulation time: 0 hr 10 min 54 sec) 
Heartbeat CPU  1 instructions:   86000003 cycles:  161672317 heartbeat IPC: 0.23479 cumulative IPC: 0.26308 (Simulation time: 0 hr 10 min 55 sec) 
Heartbeat CPU  0 instructions:   88000000 cycles:  162786202 heartbeat IPC: 0.23594 cumulative IPC: 0.28005 (Simulation time: 0 hr 10 min 57 sec) 
Heartbeat CPU  3 instructions:   83000001 cycles:  163689551 heartbeat IPC: 0.24116 cumulative IPC: 0.24054 (Simulation time: 0 hr 10 min 59 sec) 
Heartbeat CPU  2 instructions:   98000003 cycles:  165883874 heartbeat IPC: 0.20732 cumulative IPC: 0.26720 (Simulation time: 0 hr 11 min 4 sec) 
Heartbeat CPU  1 instructions:   87000002 cycles:  165894091 heartbeat IPC: 0.23687 cumulative IPC: 0.26229 (Simulation time: 0 hr 11 min 4 sec) 
Heartbeat CPU  0 instructions:   89000001 cycles:  166962159 heartbeat IPC: 0.23947 cumulative IPC: 0.27884 (Simulation time: 0 hr 11 min 6 sec) 
Heartbeat CPU  3 instructions:   84000000 cycles:  167848209 heartbeat IPC: 0.24046 cumulative IPC: 0.24054 (Simulation time: 0 hr 11 min 8 sec) 
Heartbeat CPU  1 instructions:   88000000 cycles:  169958806 heartbeat IPC: 0.24602 cumulative IPC: 0.26182 (Simulation time: 0 hr 11 min 12 sec) 
Heartbeat CPU  2 instructions:   99000002 cycles:  170943154 heartbeat IPC: 0.19766 cumulative IPC: 0.26476 (Simulation time: 0 hr 11 min 14 sec) 
Heartbeat CPU  0 instructions:   90000000 cycles:  171153534 heartbeat IPC: 0.23858 cumulative IPC: 0.27767 (Simulation time: 0 hr 11 min 15 sec) 
Heartbeat CPU  3 instructions:   85000002 cycles:  172172230 heartbeat IPC: 0.23127 cumulative IPC: 0.24027 (Simulation time: 0 hr 11 min 17 sec) 
Heartbeat CPU  1 instructions:   89000000 cycles:  174053649 heartbeat IPC: 0.24421 cumulative IPC: 0.26133 (Simulation time: 0 hr 11 min 21 sec) 
Heartbeat CPU  0 instructions:   91000002 cycles:  175325503 heartbeat IPC: 0.23970 cumulative IPC: 0.27660 (Simulation time: 0 hr 11 min 24 sec) 
*** Reached end of trace for Core: 2 Repeating trace: /pref/Pythia/STREAMING/traces/streaming_phase1_core2.trace.xz
Heartbeat CPU  2 instructions:  100000000 cycles:  175808027 heartbeat IPC: 0.20555 cumulative IPC: 0.26282 (Simulation time: 0 hr 11 min 25 sec) 
Heartbeat CPU  3 instructions:   86000003 cycles:  176279427 heartbeat IPC: 0.24348 cumulative IPC: 0.24035 (Simulation time: 0 hr 11 min 26 sec) 
Heartbeat CPU  2 instructions:  101000001 cycles:  177786960 heartbeat IPC: 0.50532 cumulative IPC: 0.26600 (Simulation time: 0 hr 11 min 30 sec) 
Heartbeat CPU  1 instructions:   90000000 cycles:  178184164 heartbeat IPC: 0.24210 cumulative IPC: 0.26081 (Simulation time: 0 hr 11 min 31 sec) 
Heartbeat CPU  0 instructions:   92000000 cycles:  179568241 heartbeat IPC: 0.23570 cumulative IPC: 0.27546 (Simulation time: 0 hr 11 min 34 sec) 
Heartbeat CPU  2 instructions:  102000003 cycles:  179827320 heartbeat IPC: 0.49011 cumulative IPC: 0.26900 (Simulation time: 0 hr 11 min 35 sec) 
Heartbeat CPU  3 instructions:   87000000 cycles:  180529572 heartbeat IPC: 0.23529 cumulative IPC: 0.24021 (Simulation time: 0 hr 11 min 37 sec) 
Heartbeat CPU  2 instructions:  103000001 cycles:  181854889 heartbeat IPC: 0.49320 cumulative IPC: 0.27194 (Simulation time: 0 hr 11 min 40 sec) 
Heartbeat CPU  1 instructions:   91000000 cycles:  182400314 heartbeat IPC: 0.23718 cumulative IPC: 0.26016 (Simulation time: 0 hr 11 min 41 sec) 
Heartbeat CPU  0 instructions:   93000000 cycles:  183807157 heartbeat IPC: 0.23591 cumulative IPC: 0.27439 (Simulation time: 0 hr 11 min 45 sec) 
Heartbeat CPU  2 instructions:  104000000 cycles:  183912264 heartbeat IPC: 0.48606 cumulative IPC: 0.27474 (Simulation time: 0 hr 11 min 45 sec) 
Heartbeat CPU  3 instructions:   88000000 cycles:  184804399 heartbeat IPC: 0.23393 cumulative IPC: 0.24004 (Simulation time: 0 hr 11 min 48 sec) 
Heartbeat CPU  2 instructions:  105000001 cycles:  185910120 heartbeat IPC: 0.50054 cumulative IPC: 0.27759 (Simulation time: 0 hr 11 min 50 sec) 
Heartbeat CPU  1 instructions:   92000000 cycles:  186561185 heartbeat IPC: 0.24033 cumulative IPC: 0.25965 (Simulation time: 0 hr 11 min 52 sec) 
Heartbeat CPU  2 instructions:  106000002 cycles:  187714724 heartbeat IPC: 0.55414 cumulative IPC: 0.28069 (Simulation time: 0 hr 11 min 55 sec) 
Heartbeat CPU  0 instructions:   94000000 cycles:  188062481 heartbeat IPC: 0.23500 cumulative IPC: 0.27335 (Simulation time: 0 hr 11 min 56 sec) 
Heartbeat CPU  3 instructions:   89000003 cycles:  188986458 heartbeat IPC: 0.23912 cumulative IPC: 0.24002 (Simulation time: 0 hr 11 min 58 sec) 
Heartbeat CPU  1 instructions:   93000001 cycles:  190869003 heartbeat IPC: 0.23214 cumulative IPC: 0.25892 (Simulation time: 0 hr 12 min 2 sec) 
Heartbeat CPU  0 instructions:   95000000 cycles:  192297701 heartbeat IPC: 0.23612 cumulative IPC: 0.27240 (Simulation time: 0 hr 12 min 5 sec) 
Heartbeat CPU  2 instructions:  107000003 cycles:  192512123 heartbeat IPC: 0.20845 cumulative IPC: 0.27860 (Simulation time: 0 hr 12 min 5 sec) 
Heartbeat CPU  3 instructions:   90000003 cycles:  193158827 heartbeat IPC: 0.23967 cumulative IPC: 0.24001 (Simulation time: 0 hr 12 min 7 sec) 
Heartbeat CPU  1 instructions:   94000003 cycles:  195071447 heartbeat IPC: 0.23796 cumulative IPC: 0.25840 (Simulation time: 0 hr 12 min 11 sec) 
Heartbeat CPU  0 instructions:   96000000 cycles:  196473491 heartbeat IPC: 0.23948 cumulative IPC: 0.27158 (Simulation time: 0 hr 12 min 14 sec) 
Heartbeat CPU  3 instructions:   91000000 cycles:  197337827 heartbeat IPC: 0.23929 cumulative IPC: 0.23999 (Simulation time: 0 hr 12 min 16 sec) 
Heartbeat CPU  2 instructions:  108000000 cycles:  197423278 heartbeat IPC: 0.20362 cumulative IPC: 0.27644 (Simulation time: 0 hr 12 min 16 sec) 
Heartbeat CPU  1 instructions:   95000002 cycles:  199244275 heartbeat IPC: 0.23965 cumulative IPC: 0.25794 (Simulation time: 0 hr 12 min 20 sec) 
Heartbeat CPU  0 instructions:   97000003 cycles:  200648762 heartbeat IPC: 0.23951 cumulative IPC: 0.27081 (Simulation time: 0 hr 12 min 23 sec) 
Heartbeat CPU  3 instructions:   92000000 cycles:  201551913 heartbeat IPC: 0.23730 cumulative IPC: 0.23993 (Simulation time: 0 hr 12 min 24 sec) 
Heartbeat CPU  2 instructions:  109000003 cycles:  202496779 heartbeat IPC: 0.19710 cumulative IPC: 0.27414 (Simulation time: 0 hr 12 min 26 sec) 
Heartbeat CPU  1 instructions:   96000000 cycles:  203319448 heartbeat IPC: 0.24539 cumulative IPC: 0.25765 (Simulation time: 0 hr 12 min 28 sec) 
Heartbeat CPU  0 instructions:   98000002 cycles:  204848890 heartbeat IPC: 0.23809 cumulative IPC: 0.27004 (Simulation time: 0 hr 12 min 31 sec) 
Heartbeat CPU  3 instructions:   93000000 cycles:  205739871 heartbeat IPC: 0.23878 cumulative IPC: 0.23990 (Simulation time: 0 hr 12 min 33 sec) 
Heartbeat CPU  1 instructions:   97000003 cycles:  207438980 heartbeat IPC: 0.24275 cumulative IPC: 0.25731 (Simulation time: 0 hr 12 min 37 sec) 
Heartbeat CPU  2 instructions:  110000002 cycles:  207619828 heartbeat IPC: 0.19520 cumulative IPC: 0.27190 (Simulation time: 0 hr 12 min 37 sec) 
Heartbeat CPU  0 instructions:   99000000 cycles:  209262556 heartbeat IPC: 0.22657 cumulative IPC: 0.26899 (Simulation time: 0 hr 12 min 40 sec) 
Heartbeat CPU  3 instructions:   94000000 cycles:  209973429 heartbeat IPC: 0.23621 cumulative IPC: 0.23982 (Simulation time: 0 hr 12 min 42 sec) 
Heartbeat CPU  2 instructions:  111000001 cycles:  211484888 heartbeat IPC: 0.25873 cumulative IPC: 0.27162 (Simulation time: 0 hr 12 min 45 sec) 
Heartbeat CPU  1 instructions:   98000000 cycles:  211827038 heartbeat IPC: 0.22789 cumulative IPC: 0.25661 (Simulation time: 0 hr 12 min 46 sec) 
*** Reached end of trace for Core: 0 Repeating trace: /pref/Pythia/STREAMING/traces/streaming_phase1_core0.trace.xz
Heartbeat CPU  2 instructions:  112000000 cycles:  213503003 heartbeat IPC: 0.49551 cumulative IPC: 0.27405 (Simulation time: 0 hr 12 min 50 sec) 
Heartbeat CPU  0 instructions:  100000000 cycles:  213506050 heartbeat IPC: 0.23565 cumulative IPC: 0.26823 (Simulation time: 0 hr 12 min 50 sec) 
Heartbeat CPU  3 instructions:   95000000 cycles:  214190713 heartbeat IPC: 0.23712 cumulative IPC: 0.23975 (Simulation time: 0 hr 12 min 52 sec) 
Heartbeat CPU  2 instructions:  113000002 cycles:  215434016 heartbeat IPC: 0.51786 cumulative IPC: 0.27655 (Simulation time: 0 hr 12 min 55 sec) 
Heartbeat CPU  1 instructions:   99000000 cycles:  216212733 heartbeat IPC: 0.22801 cumulative IPC: 0.25595 (Simulation time: 0 hr 12 min 57 sec) 
Heartbeat CPU  2 instructions:  114000001 cycles:  217465610 heartbeat IPC: 0.49222 cumulative IPC: 0.27885 (Simulation time: 0 hr 13 min 0 sec) 
Heartbeat CPU  0 instructions:  101000001 cycles:  217650103 heartbeat IPC: 0.24131 cumulative IPC: 0.26764 (Simulation time: 0 hr 13 min 1 sec) 
Heartbeat CPU  3 instructions:   96000000 cycles:  218398462 heartbeat IPC: 0.23766 cumulative IPC: 0.23971 (Simulation time: 0 hr 13 min 3 sec) 
Heartbeat CPU  2 instructions:  115000000 cycles:  219472503 heartbeat IPC: 0.49828 cumulative IPC: 0.28114 (Simulation time: 0 hr 13 min 6 sec) 
*** Reached end of trace for Core: 1 Repeating trace: /pref/Pythia/STREAMING/traces/streaming_phase1_core1.trace.xz
Heartbeat CPU  1 instructions:  100000000 cycles:  220423254 heartbeat IPC: 0.23750 cumulative IPC: 0.25555 (Simulation time: 0 hr 13 min 8 sec) 
Heartbeat CPU  2 instructions:  116000000 cycles:  221402653 heartbeat IPC: 0.51809 cumulative IPC: 0.28349 (Simulation time: 0 hr 13 min 11 sec) 
Heartbeat CPU  0 instructions:  102000000 cycles:  221718563 heartbeat IPC: 0.24579 cumulative IPC: 0.26719 (Simulation time: 0 hr 13 min 11 sec) 
Heartbeat CPU  3 instructions:   97000002 cycles:  222603542 heartbeat IPC: 0.23781 cumulative IPC: 0.23967 (Simulation time: 0 hr 13 min 14 sec) 
Heartbeat CPU  2 instructions:  117000000 cycles:  223341788 heartbeat IPC: 0.51569 cumulative IPC: 0.28579 (Simulation time: 0 hr 13 min 16 sec) 
Heartbeat CPU  1 instructions:  101000002 cycles:  224412378 heartbeat IPC: 0.25068 cumulative IPC: 0.25545 (Simulation time: 0 hr 13 min 18 sec) 
Heartbeat CPU  2 instructions:  118000000 cycles:  225210002 heartbeat IPC: 0.53527 cumulative IPC: 0.28814 (Simulation time: 0 hr 13 min 20 sec) 
Heartbeat CPU  0 instructions:  103000000 cycles:  225923086 heartbeat IPC: 0.23784 cumulative IPC: 0.26656 (Simulation time: 0 hr 13 min 22 sec) 
Heartbeat CPU  3 instructions:   98000003 cycles:  226720975 heartbeat IPC: 0.24287 cumulative IPC: 0.23973 (Simulation time: 0 hr 13 min 24 sec) 
Heartbeat CPU  2 instructions:  119000003 cycles:  227131384 heartbeat IPC: 0.52046 cumulative IPC: 0.29037 (Simulation time: 0 hr 13 min 25 sec) 
Heartbeat CPU  1 instructions:  102000001 cycles:  228462374 heartbeat IPC: 0.24691 cumulative IPC: 0.25528 (Simulation time: 0 hr 13 min 29 sec) 
Heartbeat CPU  2 instructions:  120000000 cycles:  228974560 heartbeat IPC: 0.54254 cumulative IPC: 0.29267 (Simulation time: 0 hr 13 min 30 sec) 
Heartbeat CPU  0 instructions:  104000000 cycles:  230037504 heartbeat IPC: 0.24305 cumulative IPC: 0.26609 (Simulation time: 0 hr 13 min 33 sec) 
Heartbeat CPU  2 instructions:  121000003 cycles:  230866629 heartbeat IPC: 0.52852 cumulative IPC: 0.29486 (Simulation time: 0 hr 13 min 35 sec) 
Heartbeat CPU  3 instructions:   99000002 cycles:  231071341 heartbeat IPC: 0.22987 cumulative IPC: 0.23952 (Simulation time: 0 hr 13 min 35 sec) 
Heartbeat CPU  1 instructions:  103000000 cycles:  232566667 heartbeat IPC: 0.24365 cumulative IPC: 0.25505 (Simulation time: 0 hr 13 min 39 sec) 
Heartbeat CPU  2 instructions:  122000001 cycles:  232922727 heartbeat IPC: 0.48636 cumulative IPC: 0.29678 (Simulation time: 0 hr 13 min 40 sec) 
Heartbeat CPU  0 instructions:  105000002 cycles:  234175195 heartbeat IPC: 0.24168 cumulative IPC: 0.26560 (Simulation time: 0 hr 13 min 43 sec) 
Heartbeat CPU  2 instructions:  123000001 cycles:  234865866 heartbeat IPC: 0.51463 cumulative IPC: 0.29881 (Simulation time: 0 hr 13 min 45 sec) 
*** Reached end of trace for Core: 3 Repeating trace: /pref/Pythia/STREAMING/traces/streaming_phase1_core3.trace.xz
Heartbeat CPU  3 instructions:  100000000 cycles:  235510086 heartbeat IPC: 0.22529 cumulative IPC: 0.23922 (Simulation time: 0 hr 13 min 47 sec) 
Heartbeat CPU  1 instructions:  104000000 cycles:  236616603 heartbeat IPC: 0.24692 cumulative IPC: 0.25489 (Simulation time: 0 hr 13 min 50 sec) 
Heartbeat CPU  2 instructions:  124000000 cycles:  236876961 heartbeat IPC: 0.49724 cumulative IPC: 0.30072 (Simulation time: 0 hr 13 min 50 sec) 
Heartbeat CPU  0 instructions:  106000002 cycles:  237886916 heartbeat IPC: 0.26942 cumulative IPC: 0.26567 (Simulation time: 0 hr 13 min 53 sec) 
Heartbeat CPU  2 instructions:  125000001 cycles:  238999578 heartbeat IPC: 0.47112 cumulative IPC: 0.30242 (Simulation time: 0 hr 13 min 56 sec) 
Heartbeat CPU  3 instructions:  101000002 cycles:  239634796 heartbeat IPC: 0.24244 cumulative IPC: 0.23928 (Simulation time: 0 hr 13 min 57 sec) 
Heartbeat CPU  1 instructions:  105000000 cycles:  240722148 heartbeat IPC: 0.24357 cumulative IPC: 0.25467 (Simulation time: 0 hr 14 min 0 sec) 
Heartbeat CPU  2 instructions:  126000003 cycles:  240856537 heartbeat IPC: 0.53852 cumulative IPC: 0.30447 (Simulation time: 0 hr 14 min 1 sec) 
Heartbeat CPU  0 instructions:  107000001 cycles:  241525118 heartbeat IPC: 0.27486 cumulative IPC: 0.26582 (Simulation time: 0 hr 14 min 2 sec) 
Heartbeat CPU  2 instructions:  127000001 cycles:  242676888 heartbeat IPC: 0.54934 cumulative IPC: 0.30654 (Simulation time: 0 hr 14 min 5 sec) 
Heartbeat CPU  3 instructions:  102000000 cycles:  243776827 heartbeat IPC: 0.24143 cumulative IPC: 0.23932 (Simulation time: 0 hr 14 min 8 sec) 
Heartbeat CPU  2 instructions:  128000000 cycles:  244516049 heartbeat IPC: 0.54373 cumulative IPC: 0.30855 (Simulation time: 0 hr 14 min 10 sec) 
Heartbeat CPU  1 instructions:  106000002 cycles:  244877276 heartbeat IPC: 0.24067 cumulative IPC: 0.25441 (Simulation time: 0 hr 14 min 11 sec) 
Heartbeat CPU  0 instructions:  108000000 cycles:  245485480 heartbeat IPC: 0.25250 cumulative IPC: 0.26558 (Simulation time: 0 hr 14 min 13 sec) 
Heartbeat CPU  2 instructions:  129000002 cycles:  246409129 heartbeat IPC: 0.52824 cumulative IPC: 0.31044 (Simulation time: 0 hr 14 min 15 sec) 
Heartbeat CPU  3 instructions:  103000003 cycles:  247873196 heartbeat IPC: 0.24412 cumulative IPC: 0.23941 (Simulation time: 0 hr 14 min 19 sec) 
Heartbeat CPU  2 instructions:  130000003 cycles:  248337464 heartbeat IPC: 0.51858 cumulative IPC: 0.31226 (Simulation time: 0 hr 14 min 20 sec) 
Heartbeat CPU  1 instructions:  107000002 cycles:  248828615 heartbeat IPC: 0.25308 cumulative IPC: 0.25438 (Simulation time: 0 hr 14 min 22 sec) 
Heartbeat CPU  0 instructions:  109000003 cycles:  249589668 heartbeat IPC: 0.24365 cumulative IPC: 0.26518 (Simulation time: 0 hr 14 min 24 sec) 
Heartbeat CPU  2 instructions:  131000000 cycles:  250303979 heartbeat IPC: 0.50851 cumulative IPC: 0.31399 (Simulation time: 0 hr 14 min 26 sec) 
Heartbeat CPU  3 instructions:  104000000 cycles:  252035142 heartbeat IPC: 0.24027 cumulative IPC: 0.23943 (Simulation time: 0 hr 14 min 30 sec) 
Heartbeat CPU  2 instructions:  132000000 cycles:  252232108 heartbeat IPC: 0.51864 cumulative IPC: 0.31574 (Simulation time: 0 hr 14 min 30 sec) 
Heartbeat CPU  1 instructions:  108000000 cycles:  252909611 heartbeat IPC: 0.24504 cumulative IPC: 0.25421 (Simulation time: 0 hr 14 min 32 sec) 
Heartbeat CPU  0 instructions:  110000001 cycles:  253753777 heartbeat IPC: 0.24015 cumulative IPC: 0.26472 (Simulation time: 0 hr 14 min 34 sec) 
Heartbeat CPU  2 instructions:  133000003 cycles:  254124667 heartbeat IPC: 0.52839 cumulative IPC: 0.31751 (Simulation time: 0 hr 14 min 35 sec) 
Heartbeat CPU  2 instructions:  134000002 cycles:  256020074 heartbeat IPC: 0.52759 cumulative IPC: 0.31925 (Simulation time: 0 hr 14 min 40 sec) 
Heartbeat CPU  3 instructions:  105000001 cycles:  256232864 heartbeat IPC: 0.23822 cumulative IPC: 0.23941 (Simulation time: 0 hr 14 min 41 sec) 
Heartbeat CPU  1 instructions:  109000001 cycles:  257072940 heartbeat IPC: 0.24019 cumulative IPC: 0.25396 (Simulation time: 0 hr 14 min 44 sec) 
Heartbeat CPU  0 instructions:  111000001 cycles:  257889474 heartbeat IPC: 0.24180 cumulative IPC: 0.26431 (Simulation time: 0 hr 14 min 46 sec) 
Heartbeat CPU  2 instructions:  135000000 cycles:  258026185 heartbeat IPC: 0.49848 cumulative IPC: 0.32081 (Simulation time: 0 hr 14 min 46 sec) 
Heartbeat CPU  3 instructions:  106000002 cycles:  258033922 heartbeat IPC: 0.55523 cumulative IPC: 0.24187 (Simulation time: 0 hr 14 min 46 sec) 
Heartbeat CPU  2 instructions:  136000000 cycles:  260018267 heartbeat IPC: 0.50199 cumulative IPC: 0.32236 (Simulation time: 0 hr 14 min 51 sec) 
Heartbeat CPU  1 instructions:  110000003 cycles:  261368616 heartbeat IPC: 0.23279 cumulative IPC: 0.25357 (Simulation time: 0 hr 14 min 55 sec) 
Heartbeat CPU  0 instructions:  112000000 cycles:  261970998 heartbeat IPC: 0.24501 cumulative IPC: 0.26397 (Simulation time: 0 hr 14 min 56 sec) 
Heartbeat CPU  3 instructions:  107000000 cycles:  262037106 heartbeat IPC: 0.24980 cumulative IPC: 0.24200 (Simulation time: 0 hr 14 min 56 sec) 
Heartbeat CPU  2 instructions:  137000000 cycles:  263733876 heartbeat IPC: 0.26913 cumulative IPC: 0.32152 (Simulation time: 0 hr 15 min 0 sec) 
Heartbeat CPU  1 instructions:  111000003 cycles:  265508996 heartbeat IPC: 0.24152 cumulative IPC: 0.25336 (Simulation time: 0 hr 15 min 3 sec) 
Heartbeat CPU  0 instructions:  113000002 cycles:  266014010 heartbeat IPC: 0.24734 cumulative IPC: 0.26369 (Simulation time: 0 hr 15 min 4 sec) 
Heartbeat CPU  3 instructions:  108000000 cycles:  266088324 heartbeat IPC: 0.24684 cumulative IPC: 0.24209 (Simulation time: 0 hr 15 min 5 sec) 
Heartbeat CPU  2 instructions:  138000002 cycles:  268652298 heartbeat IPC: 0.20332 cumulative IPC: 0.31912 (Simulation time: 0 hr 15 min 10 sec) 
Heartbeat CPU  1 instructions:  112000000 cycles:  269625096 heartbeat IPC: 0.24295 cumulative IPC: 0.25319 (Simulation time: 0 hr 15 min 12 sec) 
Heartbeat CPU  0 instructions:  114000001 cycles:  270151162 heartbeat IPC: 0.24171 cumulative IPC: 0.26332 (Simulation time: 0 hr 15 min 13 sec) 
Heartbeat CPU  3 instructions:  109000000 cycles:  270280617 heartbeat IPC: 0.23853 cumulative IPC: 0.24203 (Simulation time: 0 hr 15 min 14 sec) 
Heartbeat CPU  2 instructions:  139000001 cycles:  273673673 heartbeat IPC: 0.19915 cumulative IPC: 0.31667 (Simulation time: 0 hr 15 min 21 sec) 
Heartbeat CPU  1 instructions:  113000001 cycles:  273809776 heartbeat IPC: 0.23897 cumulative IPC: 0.25294 (Simulation time: 0 hr 15 min 21 sec) 
Heartbeat CPU  0 instructions:  115000001 cycles:  274291444 heartbeat IPC: 0.24153 cumulative IPC: 0.26295 (Simulation time: 0 hr 15 min 22 sec) 
Heartbeat CPU  3 instructions:  110000000 cycles:  274535248 heartbeat IPC: 0.23504 cumulative IPC: 0.24191 (Simulation time: 0 hr 15 min 23 sec) 
Heartbeat CPU  1 instructions:  114000003 cycles:  277944320 heartbeat IPC: 0.24187 cumulative IPC: 0.25276 (Simulation time: 0 hr 15 min 30 sec) 
Heartbeat CPU  0 instructions:  116000000 cycles:  278440722 heartbeat IPC: 0.24101 cumulative IPC: 0.26259 (Simulation time: 0 hr 15 min 31 sec) 
Heartbeat CPU  2 instructions:  140000000 cycles:  278540143 heartbeat IPC: 0.20549 cumulative IPC: 0.31452 (Simulation time: 0 hr 15 min 31 sec) 
Heartbeat CPU  3 instructions:  111000001 cycles:  278712663 heartbeat IPC: 0.23938 cumulative IPC: 0.24186 (Simulation time: 0 hr 15 min 32 sec) 
Heartbeat CPU  1 instructions:  115000000 cycles:  282133531 heartbeat IPC: 0.23871 cumulative IPC: 0.25253 (Simulation time: 0 hr 15 min 39 sec) 
Heartbeat CPU  0 instructions:  117000002 cycles:  282551843 heartbeat IPC: 0.24324 cumulative IPC: 0.26228 (Simulation time: 0 hr 15 min 40 sec) 
Heartbeat CPU  3 instructions:  112000000 cycles:  282814328 heartbeat IPC: 0.24380 cumulative IPC: 0.24189 (Simulation time: 0 hr 15 min 41 sec) 
Heartbeat CPU  2 instructions:  141000001 cycles:  283529947 heartbeat IPC: 0.20041 cumulative IPC: 0.31230 (Simulation time: 0 hr 15 min 42 sec) 
Heartbeat CPU  1 instructions:  116000000 cycles:  286121313 heartbeat IPC: 0.25077 cumulative IPC: 0.25250 (Simulation time: 0 hr 15 min 48 sec) 
Heartbeat CPU  0 instructions:  118000001 cycles:  286634746 heartbeat IPC: 0.24492 cumulative IPC: 0.26200 (Simulation time: 0 hr 15 min 49 sec) 
Heartbeat CPU  3 instructions:  113000002 cycles:  286790719 heartbeat IPC: 0.25148 cumulative IPC: 0.24204 (Simulation time: 0 hr 15 min 49 sec) 
Heartbeat CPU  2 instructions:  142000000 cycles:  288592854 heartbeat IPC: 0.19751 cumulative IPC: 0.31008 (Simulation time: 0 hr 15 min 53 sec) 
Heartbeat CPU  1 instructions:  117000000 cycles:  290188804 heartbeat IPC: 0.24585 cumulative IPC: 0.25240 (Simulation time: 0 hr 15 min 57 sec) 
Heartbeat CPU  0 instructions:  119000002 cycles:  290639265 heartbeat IPC: 0.24972 cumulative IPC: 0.26182 (Simulation time: 0 hr 15 min 57 sec) 
Heartbeat CPU  3 instructions:  114000001 cycles:  290868287 heartbeat IPC: 0.24524 cumulative IPC: 0.24209 (Simulation time: 0 hr 15 min 58 sec) 
Heartbeat CPU  2 instructions:  143000001 cycles:  293683761 heartbeat IPC: 0.19643 cumulative IPC: 0.30791 (Simulation time: 0 hr 16 min 4 sec) 
Heartbeat CPU  1 instructions:  118000001 cycles:  294274453 heartbeat IPC: 0.24476 cumulative IPC: 0.25228 (Simulation time: 0 hr 16 min 5 sec) 
Heartbeat CPU  0 instructions:  120000000 cycles:  294723478 heartbeat IPC: 0.24484 cumulative IPC: 0.26156 (Simulation time: 0 hr 16 min 6 sec) 
Heartbeat CPU  3 instructions:  115000003 cycles:  295025674 heartbeat IPC: 0.24054 cumulative IPC: 0.24207 (Simulation time: 0 hr 16 min 7 sec) 
Heartbeat CPU  1 instructions:  119000003 cycles:  298302405 heartbeat IPC: 0.24827 cumulative IPC: 0.25222 (Simulation time: 0 hr 16 min 14 sec) 
Heartbeat CPU  0 instructions:  121000003 cycles:  298722233 heartbeat IPC: 0.25008 cumulative IPC: 0.26139 (Simulation time: 0 hr 16 min 15 sec) 
Heartbeat CPU  2 instructions:  144000000 cycles:  298822809 heartbeat IPC: 0.19459 cumulative IPC: 0.30576 (Simulation time: 0 hr 16 min 15 sec) 
Heartbeat CPU  3 instructions:  116000000 cycles:  299075062 heartbeat IPC: 0.24695 cumulative IPC: 0.24214 (Simulation time: 0 hr 16 min 16 sec) 
Heartbeat CPU  1 instructions:  120000000 cycles:  302249252 heartbeat IPC: 0.25337 cumulative IPC: 0.25224 (Simulation time: 0 hr 16 min 23 sec) 
Heartbeat CPU  0 instructions:  122000001 cycles:  302767282 heartbeat IPC: 0.24722 cumulative IPC: 0.26118 (Simulation time: 0 hr 16 min 24 sec) 
Heartbeat CPU  3 instructions:  117000000 cycles:  303191219 heartbeat IPC: 0.24295 cumulative IPC: 0.24215 (Simulation time: 0 hr 16 min 25 sec) 
Heartbeat CPU  2 instructions:  145000003 cycles:  303875314 heartbeat IPC: 0.19792 cumulative IPC: 0.30380 (Simulation time: 0 hr 16 min 26 sec) 
Heartbeat CPU  1 instructions:  121000002 cycles:  306271262 heartbeat IPC: 0.24863 cumulative IPC: 0.25219 (Simulation time: 0 hr 16 min 31 sec) 
Heartbeat CPU  0 instructions:  123000000 cycles:  306954019 heartbeat IPC: 0.23885 cumulative IPC: 0.26085 (Simulation time: 0 hr 16 min 33 sec) 
Heartbeat CPU  3 instructions:  118000002 cycles:  307340236 heartbeat IPC: 0.24102 cumulative IPC: 0.24213 (Simulation time: 0 hr 16 min 33 sec) 
Heartbeat CPU  2 instructions:  146000001 cycles:  309000346 heartbeat IPC: 0.19512 cumulative IPC: 0.30182 (Simulation time: 0 hr 16 min 37 sec) 
Heartbeat CPU  1 instructions:  122000003 cycles:  310321176 heartbeat IPC: 0.24692 cumulative IPC: 0.25211 (Simulation time: 0 hr 16 min 40 sec) 
Heartbeat CPU  0 instructions:  124000000 cycles:  311095893 heartbeat IPC: 0.24144 cumulative IPC: 0.26056 (Simulation time: 0 hr 16 min 41 sec) 
Heartbeat CPU  3 instructions:  119000000 cycles:  311432064 heartbeat IPC: 0.24439 cumulative IPC: 0.24217 (Simulation time: 0 hr 16 min 42 sec) 
Heartbeat CPU  2 instructions:  147000002 cycles:  314090572 heartbeat IPC: 0.19646 cumulative IPC: 0.29995 (Simulation time: 0 hr 16 min 48 sec) 
Heartbeat CPU  1 instructions:  123000001 cycles:  314223529 heartbeat IPC: 0.25626 cumulative IPC: 0.25217 (Simulation time: 0 hr 16 min 48 sec) 
Heartbeat CPU  0 instructions:  125000002 cycles:  315327690 heartbeat IPC: 0.23631 cumulative IPC: 0.26021 (Simulation time: 0 hr 16 min 50 sec) 
Heartbeat CPU  3 instructions:  120000000 cycles:  315472631 heartbeat IPC: 0.24749 cumulative IPC: 0.24224 (Simulation time: 0 hr 16 min 51 sec) 
Heartbeat CPU  1 instructions:  124000000 cycles:  318323319 heartbeat IPC: 0.24391 cumulative IPC: 0.25205 (Simulation time: 0 hr 16 min 57 sec) 
Heartbeat CPU  2 instructions:  148000000 cycles:  319109389 heartbeat IPC: 0.19925 cumulative IPC: 0.29822 (Simulation time: 0 hr 16 min 59 sec) 
Heartbeat CPU  0 instructions:  126000001 cycles:  319426549 heartbeat IPC: 0.24397 cumulative IPC: 0.25998 (Simulation time: 0 hr 16 min 59 sec) 
Heartbeat CPU  3 instructions:  121000003 cycles:  319512185 heartbeat IPC: 0.24755 cumulative IPC: 0.24231 (Simulation time: 0 hr 16 min 59 sec) 
Heartbeat CPU  1 instructions:  125000002 cycles:  322459129 heartbeat IPC: 0.24179 cumulative IPC: 0.25191 (Simulation time: 0 hr 17 min 6 sec) 
[...]
Core_0_L2C_rq_full 0

Core_0_L2C_wq_access 1150111
Core_0_L2C_wq_forward 696
Core_0_L2C_wq_merged 0
Core_0_L2C_wq_to_cache 1150111
Core_0_L2C_wq_full 0

Core_0_L2C_pq_access 11115651
Core_0_L2C_pq_forward 0
Core_0_L2C_pq_merged 0
Core_0_L2C_pq_to_cache 11115645
Core_0_L2C_pq_full 0

Core_0_L2C_acc_epochs 183183
Core_0_L2C_acc_level_0 38071
Core_0_L2C_acc_level_1 28332
Core_0_L2C_acc_level_2 27372
Core_0_L2C_acc_level_3 21839
Core_0_L2C_acc_level_4 13161
Core_0_L2C_acc_level_5 17829
Core_0_L2C_acc_level_6 9415
Core_0_L2C_acc_level_7 6178
Core_0_L2C_acc_level_8 3884
Core_0_L2C_acc_level_9 17102

Core_0_LLC_total_access 2140386
Core_0_LLC_total_hit 1493992
Core_0_LLC_total_miss 646394
Core_0_LLC_loads 506688
Core_0_LLC_load_hit 410540
Core_0_LLC_load_miss 96148
Core_0_LLC_RFOs 347361
Core_0_LLC_RFO_hit 236745
Core_0_LLC_RFO_miss 110616
Core_0_LLC_prefetches 825013
Core_0_LLC_prefetch_hit 416043
Core_0_LLC_prefetch_miss 408970
Core_0_LLC_writebacks 461324
Core_0_LLC_writeback_hit 430664
Core_0_LLC_writeback_miss 30660
Core_0_LLC_prefetch_requested 0
Core_0_LLC_prefetch_dropped 0
Core_0_LLC_prefetch_issued 0
Core_0_LLC_prefetch_filled 2495701
Core_0_LLC_prefetch_useful 44361
Core_0_LLC_prefetch_useless 2411141
Core_0_LLC_prefetch_late 7
Core_0_LLC_average_miss_latency 652.90644

Core_0_LLC_rq_access 3445293
Core_0_LLC_rq_forward 0
Core_0_LLC_rq_merged 0
Core_0_LLC_rq_to_cache 3445049
Core_0_LLC_rq_full 0

Core_0_LLC_wq_access 1869448
Core_0_LLC_wq_forward 261
Core_0_LLC_wq_merged 0
Core_0_LLC_wq_to_cache 1869448
Core_0_LLC_wq_full 0

Core_0_LLC_pq_access 4842336
Core_0_LLC_pq_forward 0
Core_0_LLC_pq_merged 0
Core_0_LLC_pq_to_cache 4842317
Core_0_LLC_pq_full 0

Core_0_LLC_acc_epochs 635061
Core_0_LLC_acc_level_0 612119
Core_0_LLC_acc_level_1 10971
Core_0_LLC_acc_level_2 5819
Core_0_LLC_acc_level_3 1153
Core_0_LLC_acc_level_4 234
Core_0_LLC_acc_level_5 3295
Core_0_LLC_acc_level_6 247
Core_0_LLC_acc_level_7 300
Core_0_LLC_acc_level_8 59
Core_0_LLC_acc_level_9 864

Core_0_major_page_fault 0
Core_0_minor_page_fault 17973

Core_1_instructions 150000000
Core_1_cycles 597746435
Core_1_IPC 0.25094

Core_1_branch_prediction_accuracy 97.29118
Core_1_branch_MPKI 4.99712
Core_1_average_ROB_occupancy_at_mispredict 86.18643

Core_1_L1D_total_access 23686658
Core_1_L1D_total_hit 20820844
Core_1_L1D_total_miss 2865814
Core_1_L1D_loads 13560499
Core_1_L1D_load_hit 11469489
Core_1_L1D_load_miss 2091010
Core_1_L1D_RFOs 10126159
Core_1_L1D_RFO_hit 9351355
Core_1_L1D_RFO_miss 774804
Core_1_L1D_prefetches 0
Core_1_L1D_prefetch_hit 0
Core_1_L1D_prefetch_miss 0
Core_1_L1D_writebacks 0
Core_1_L1D_writeback_hit 0
Core_1_L1D_writeback_miss 0
Core_1_L1D_prefetch_requested 0
Core_1_L1D_prefetch_dropped 0
Core_1_L1D_prefetch_issued 0
Core_1_L1D_prefetch_filled 0
Core_1_L1D_prefetch_useful 0
Core_1_L1D_prefetch_useless 0
Core_1_L1D_prefetch_late 0
Core_1_L1D_average_miss_latency 91.56855

Core_1_L1D_rq_access 27127586
Core_1_L1D_rq_forward 0
Core_1_L1D_rq_merged 12348048
Core_1_L1D_rq_to_cache 14776767
Core_1_L1D_rq_full 0

Core_1_L1D_wq_access 13546193
Core_1_L1D_wq_forward 2771
Core_1_L1D_wq_merged 38678
Core_1_L1D_wq_to_cache 13507515
Core_1_L1D_wq_full 0

Core_1_L1D_pq_access 0
Core_1_L1D_pq_forward 0
Core_1_L1D_pq_merged 0
Core_1_L1D_pq_to_cache 0
Core_1_L1D_pq_full 0

Core_1_L1D_acc_epochs 178176
Core_1_L1D_acc_level_0 178176
Core_1_L1D_acc_level_1 0
Core_1_L1D_acc_level_2 0
Core_1_L1D_acc_level_3 0
Core_1_L1D_acc_level_4 0
Core_1_L1D_acc_level_5 0
Core_1_L1D_acc_level_6 0
Core_1_L1D_acc_level_7 0
Core_1_L1D_acc_level_8 0
Core_1_L1D_acc_level_9 0

Core_1_L1I_total_access 32365684
Core_1_L1I_total_hit 26461815
Core_1_L1I_total_miss 5903869
Core_1_L1I_loads 32365684
Core_1_L1I_load_hit 26461815
Core_1_L1I_load_miss 5903869
Core_1_L1I_RFOs 0
Core_1_L1I_RFO_hit 0
Core_1_L1I_RFO_miss 0
Core_1_L1I_prefetches 0
Core_1_L1I_prefetch_hit 0
Core_1_L1I_prefetch_miss 0
Core_1_L1I_writebacks 0
Core_1_L1I_writeback_hit 0
Core_1_L1I_writeback_miss 0
Core_1_L1I_prefetch_requested 0
Core_1_L1I_prefetch_dropped 0
Core_1_L1I_prefetch_issued 0
Core_1_L1I_prefetch_filled 0
Core_1_L1I_prefetch_useful 0
Core_1_L1I_prefetch_useless 0
Core_1_L1I_prefetch_late 0
Core_1_L1I_average_miss_latency 84.94755

Core_1_L1I_rq_access 156257454
Core_1_L1I_rq_forward 0
Core_1_L1I_rq_merged 118906968
Core_1_L1I_rq_to_cache 37350486
Core_1_L1I_rq_full 0

Core_1_L1I_wq_access 0
Core_1_L1I_wq_forward 0
Core_1_L1I_wq_merged 0
Core_1_L1I_wq_to_cache 0
Core_1_L1I_wq_full 0

Core_1_L1I_pq_access 0
Core_1_L1I_pq_forward 0
Core_1_L1I_pq_merged 0
Core_1_L1I_pq_to_cache 0
Core_1_L1I_pq_full 0

Core_1_L1I_acc_epochs 178176
Core_1_L1I_acc_level_0 178176
Core_1_L1I_acc_level_1 0
Core_1_L1I_acc_level_2 0
Core_1_L1I_acc_level_3 0
Core_1_L1I_acc_level_4 0
Core_1_L1I_acc_level_5 0
Core_1_L1I_acc_level_6 0
Core_1_L1I_acc_level_7 0
Core_1_L1I_acc_level_8 0
Core_1_L1I_acc_level_9 0

Core_1_L2C_total_access 17424663
Core_1_L2C_total_hit 15847153
Core_1_L2C_total_miss 1577510
Core_1_L2C_loads 7994635
Core_1_L2C_load_hit 7254414
Core_1_L2C_load_miss 740221
Core_1_L2C_RFOs 774439
Core_1_L2C_RFO_hit 430534
Core_1_L2C_RFO_miss 343905
Core_1_L2C_prefetches 7573290
Core_1_L2C_prefetch_hit 7098213
Core_1_L2C_prefetch_miss 475077
Core_1_L2C_writebacks 1082299
Core_1_L2C_writeback_hit 1063992
Core_1_L2C_writeback_miss 18307
Core_1_L2C_prefetch_requested 11156788
Core_1_L2C_prefetch_dropped 0
Core_1_L2C_prefetch_issued 11156788
Core_1_L2C_prefetch_filled 730825
Core_1_L2C_prefetch_useful 385075
Core_1_L2C_prefetch_useless 344991
Core_1_L2C_prefetch_late 294307
Core_1_L2C_average_miss_latency 112.07911

Core_1_L2C_rq_access 9163725
Core_1_L2C_rq_forward 0
Core_1_L2C_rq_merged 0
Core_1_L2C_rq_to_cache 9163052
Core_1_L2C_rq_full 0

Core_1_L2C_wq_access 1127394
Core_1_L2C_wq_forward 674
Core_1_L2C_wq_merged 0
Core_1_L2C_wq_to_cache 1127394
Core_1_L2C_wq_full 0

Core_1_L2C_pq_access 11156788
Core_1_L2C_pq_forward 0
Core_1_L2C_pq_merged 0
Core_1_L2C_pq_to_cache 11156787
Core_1_L2C_pq_full 0

Core_1_L2C_acc_epochs 178176
Core_1_L2C_acc_level_0 41979
Core_1_L2C_acc_level_1 27845
Core_1_L2C_acc_level_2 26600
Core_1_L2C_acc_level_3 20730
Core_1_L2C_acc_level_4 12308
Core_1_L2C_acc_level_5 17641
Core_1_L2C_acc_level_6 9549
Core_1_L2C_acc_level_7 5727
Core_1_L2C_acc_level_8 3647
Core_1_L2C_acc_level_9 12150

Core_1_LLC_total_access 2012227
Core_1_LLC_total_hit 1415799
Core_1_LLC_total_miss 596428
Core_1_LLC_loads 463578
Core_1_LLC_load_hit 362347
Core_1_LLC_load_miss 101231
Core_1_LLC_RFOs 343653
Core_1_LLC_RFO_hit 238687
Core_1_LLC_RFO_miss 104966
Core_1_LLC_prefetches 751940
Core_1_LLC_prefetch_hit 387859
Core_1_LLC_prefetch_miss 364081
Core_1_LLC_writebacks 453056
Core_1_LLC_writeback_hit 426906
Core_1_LLC_writeback_miss 26150
Core_1_LLC_prefetch_requested 0
Core_1_LLC_prefetch_dropped 0
Core_1_LLC_prefetch_issued 0
Core_1_LLC_prefetch_filled 2495701
Core_1_LLC_prefetch_useful 44361
Core_1_LLC_prefetch_useless 2411141
Core_1_LLC_prefetch_late 7
Core_1_LLC_average_miss_latency 707.60394

Core_1_LLC_rq_access 3445293
Core_1_LLC_rq_forward 0
Core_1_LLC_rq_merged 0
Core_1_LLC_rq_to_cache 3445049
Core_1_LLC_rq_full 0

Core_1_LLC_wq_access 1869448
Core_1_LLC_wq_forward 261
Core_1_LLC_wq_merged 0
Core_1_LLC_wq_to_cache 1869448
Core_1_LLC_wq_full 0

Core_1_LLC_pq_access 4842336
Core_1_LLC_pq_forward 0
Core_1_LLC_pq_merged 0
Core_1_LLC_pq_to_cache 4842317
Core_1_LLC_pq_full 0

Core_1_LLC_acc_epochs 635061
Core_1_LLC_acc_level_0 612119
Core_1_LLC_acc_level_1 10971
Core_1_LLC_acc_level_2 5819
Core_1_LLC_acc_level_3 1153
Core_1_LLC_acc_level_4 234
Core_1_LLC_acc_level_5 3295
Core_1_LLC_acc_level_6 247
Core_1_LLC_acc_level_7 300
Core_1_LLC_acc_level_8 59
Core_1_LLC_acc_level_9 864

Core_1_major_page_fault 0
Core_1_minor_page_fault 17503

Core_2_instructions 150000000
Core_2_cycles 535766669
Core_2_IPC 0.27997

Core_2_branch_prediction_accuracy 97.36570
Core_2_branch_MPKI 4.10109
Core_2_average_ROB_occupancy_at_mispredict 86.51239

Core_2_L1D_total_access 18410163
Core_2_L1D_total_hit 16033744
Core_2_L1D_total_miss 2376419
Core_2_L1D_loads 11798482
Core_2_L1D_load_hit 9949290
Core_2_L1D_load_miss 1849192
Core_2_L1D_RFOs 6611681
Core_2_L1D_RFO_hit 6084454
Core_2_L1D_RFO_miss 527227
Core_2_L1D_prefetches 0
Core_2_L1D_prefetch_hit 0
Core_2_L1D_prefetch_miss 0
Core_2_L1D_writebacks 0
Core_2_L1D_writeback_hit 0
Core_2_L1D_writeback_miss 0
Core_2_L1D_prefetch_requested 0
Core_2_L1D_prefetch_dropped 0
Core_2_L1D_prefetch_issued 0
Core_2_L1D_prefetch_filled 0
Core_2_L1D_prefetch_useful 0
Core_2_L1D_prefetch_useless 0
Core_2_L1D_prefetch_late 0
Core_2_L1D_average_miss_latency 103.95124

Core_2_L1D_rq_access 29173786
Core_2_L1D_rq_forward 0
Core_2_L1D_rq_merged 13181480
Core_2_L1D_rq_to_cache 15988700
Core_2_L1D_rq_full 0

Core_2_L1D_wq_access 9438129
Core_2_L1D_wq_forward 3606
Core_2_L1D_wq_merged 28717
Core_2_L1D_wq_to_cache 9409412
Core_2_L1D_wq_full 0

Core_2_L1D_pq_access 0
Core_2_L1D_pq_forward 0
Core_2_L1D_pq_merged 0
Core_2_L1D_pq_to_cache 0
Core_2_L1D_pq_full 0

Core_2_L1D_acc_epochs 208243
Core_2_L1D_acc_level_0 208243
Core_2_L1D_acc_level_1 0
Core_2_L1D_acc_level_2 0
Core_2_L1D_acc_level_3 0
Core_2_L1D_acc_level_4 0
Core_2_L1D_acc_level_5 0
Core_2_L1D_acc_level_6 0
Core_2_L1D_acc_level_7 0
Core_2_L1D_acc_level_8 0
Core_2_L1D_acc_level_9 0

Core_2_L1I_total_access 29261644
Core_2_L1I_total_hit 25910052
Core_2_L1I_total_miss 3351592
Core_2_L1I_loads 29261644
Core_2_L1I_load_hit 25910052
Core_2_L1I_load_miss 3351592
Core_2_L1I_RFOs 0
Core_2_L1I_RFO_hit 0
Core_2_L1I_RFO_miss 0
Core_2_L1I_prefetches 0
Core_2_L1I_prefetch_hit 0
Core_2_L1I_prefetch_miss 0
Core_2_L1I_writebacks 0
Core_2_L1I_writeback_hit 0
Core_2_L1I_writeback_miss 0
Core_2_L1I_prefetch_requested 0
Core_2_L1I_prefetch_dropped 0
Core_2_L1I_prefetch_issued 0
Core_2_L1I_prefetch_filled 0
Core_2_L1I_prefetch_useful 0
Core_2_L1I_prefetch_useless 0
Core_2_L1I_prefetch_late 0
Core_2_L1I_average_miss_latency 93.39145

Core_2_L1I_rq_access 183018193
Core_2_L1I_rq_forward 0
Core_2_L1I_rq_merged 145520764
Core_2_L1I_rq_to_cache 37497429
Core_2_L1I_rq_full 0

Core_2_L1I_wq_access 0
Core_2_L1I_wq_forward 0
Core_2_L1I_wq_merged 0
Core_2_L1I_wq_to_cache 0
Core_2_L1I_wq_full 0

Core_2_L1I_pq_access 0
Core_2_L1I_pq_forward 0
Core_2_L1I_pq_merged 0
Core_2_L1I_pq_to_cache 0
Core_2_L1I_pq_full 0

Core_2_L1I_acc_epochs 208243
Core_2_L1I_acc_level_0 208243
Core_2_L1I_acc_level_1 0
Core_2_L1I_acc_level_2 0
Core_2_L1I_acc_level_3 0
Core_2_L1I_acc_level_4 0
Core_2_L1I_acc_level_5 0
Core_2_L1I_acc_level_6 0
Core_2_L1I_acc_level_7 0
Core_2_L1I_acc_level_8 0
Core_2_L1I_acc_level_9 0

Core_2_L2C_total_access 11308995
Core_2_L2C_total_hit 9573311
Core_2_L2C_total_miss 1735684
Core_2_L2C_loads 5200523
Core_2_L2C_load_hit 4310635
Core_2_L2C_load_miss 889888
Core_2_L2C_RFOs 526972
Core_2_L2C_RFO_hit 334060
Core_2_L2C_RFO_miss 192912
Core_2_L2C_prefetches 4687948
Core_2_L2C_prefetch_hit 4057369
Core_2_L2C_prefetch_miss 630579
Core_2_L2C_writebacks 893552
Core_2_L2C_writeback_hit 871247
Core_2_L2C_writeback_miss 22305
Core_2_L2C_prefetch_requested 7665082
Core_2_L2C_prefetch_dropped 0
Core_2_L2C_prefetch_issued 7665082
Core_2_L2C_prefetch_filled 1172893
Core_2_L2C_prefetch_useful 719965
Core_2_L2C_prefetch_useless 451979
Core_2_L2C_prefetch_late 464218
Core_2_L2C_average_miss_latency 130.24339

Core_2_L2C_rq_access 6436400
Core_2_L2C_rq_forward 0
Core_2_L2C_rq_merged 0
Core_2_L2C_rq_to_cache 6435841
Core_2_L2C_rq_full 0

Core_2_L2C_wq_access 995252
Core_2_L2C_wq_forward 561
Core_2_L2C_wq_merged 0
Core_2_L2C_wq_to_cache 995252
Core_2_L2C_wq_full 0

Core_2_L2C_pq_access 7665082
Core_2_L2C_pq_forward 0
Core_2_L2C_pq_merged 0
Core_2_L2C_pq_to_cache 7665080
Core_2_L2C_pq_full 0

Core_2_L2C_acc_epochs 208243
Core_2_L2C_acc_level_0 18493
Core_2_L2C_acc_level_1 22083
Core_2_L2C_acc_level_2 22729
Core_2_L2C_acc_level_3 20743
Core_2_L2C_acc_level_4 16094
Core_2_L2C_acc_level_5 14395
Core_2_L2C_acc_level_6 12780
Core_2_L2C_acc_level_7 13357
Core_2_L2C_acc_level_8 20821
Core_2_L2C_acc_level_9 46748

Core_2_LLC_total_access 2076700
Core_2_LLC_total_hit 1369157
Core_2_LLC_total_miss 707543
Core_2_LLC_loads 537946
Core_2_LLC_load_hit 477241
Core_2_LLC_load_miss 60705
Core_2_LLC_RFOs 192709
Core_2_LLC_RFO_hit 131720
Core_2_LLC_RFO_miss 60989
Core_2_LLC_prefetches 982631
Core_2_LLC_prefetch_hit 409081
Core_2_LLC_prefetch_miss 573550
Core_2_LLC_writebacks 363414
Core_2_LLC_writeback_hit 351115
Core_2_LLC_writeback_miss 12299
Core_2_LLC_prefetch_requested 0
Core_2_LLC_prefetch_dropped 0
Core_2_LLC_prefetch_issued 0
Core_2_LLC_prefetch_filled 2495701
Core_2_LLC_prefetch_useful 44361
Core_2_LLC_prefetch_useless 2411141
Core_2_LLC_prefetch_late 7
Core_2_LLC_average_miss_latency 596.47937

Core_2_LLC_rq_access 3445293
Core_2_LLC_rq_forward 0
Core_2_LLC_rq_merged 0
Core_2_LLC_rq_to_cache 3445049
Core_2_LLC_rq_full 0

Core_2_LLC_wq_access 1869448
Core_2_LLC_wq_forward 261
Core_2_LLC_wq_merged 0
Core_2_LLC_wq_to_cache 1869448
Core_2_LLC_wq_full 0

Core_2_LLC_pq_access 4842336
Core_2_LLC_pq_forward 0
Core_2_LLC_pq_merged 0
Core_2_LLC_pq_to_cache 4842317
Core_2_LLC_pq_full 0

Core_2_LLC_acc_epochs 635061
Core_2_LLC_acc_level_0 612119
Core_2_LLC_acc_level_1 10971
Core_2_LLC_acc_level_2 5819
Core_2_LLC_acc_level_3 1153
Core_2_LLC_acc_level_4 234
Core_2_LLC_acc_level_5 3295
Core_2_LLC_acc_level_6 247
Core_2_LLC_acc_level_7 300
Core_2_LLC_acc_level_8 59
Core_2_LLC_acc_level_9 864

Core_2_major_page_fault 0
Core_2_minor_page_fault 15290

Core_3_instructions 150000002
Core_3_cycles 623204372
Core_3_IPC 0.24069

Core_3_branch_prediction_accuracy 97.21756
Core_3_branch_MPKI 5.21011
Core_3_average_ROB_occupancy_at_mispredict 86.84720

Core_3_L1D_total_access 24667496
Core_3_L1D_total_hit 21697132
Core_3_L1D_total_miss 2970364
Core_3_L1D_loads 14050207
Core_3_L1D_load_hit 11907857
Core_3_L1D_load_miss 2142350
Core_3_L1D_RFOs 10617289
Core_3_L1D_RFO_hit 9789275
Core_3_L1D_RFO_miss 828014
Core_3_L1D_prefetches 0
Core_3_L1D_prefetch_hit 0
Core_3_L1D_prefetch_miss 0
Core_3_L1D_writebacks 0
Core_3_L1D_writeback_hit 0
Core_3_L1D_writeback_miss 0
Core_3_L1D_prefetch_requested 0
Core_3_L1D_prefetch_dropped 0
Core_3_L1D_prefetch_issued 0
Core_3_L1D_prefetch_filled 0
Core_3_L1D_prefetch_useful 0
Core_3_L1D_prefetch_useless 0
Core_3_L1D_prefetch_late 0
Core_3_L1D_average_miss_latency 89.89397

Core_3_L1D_rq_access 26505585
Core_3_L1D_rq_forward 0
Core_3_L1D_rq_merged 11995396
Core_3_L1D_rq_to_cache 14507103
Core_3_L1D_rq_full 0

Core_3_L1D_wq_access 13699410
Core_3_L1D_wq_forward 3086
Core_3_L1D_wq_merged 39434
Core_3_L1D_wq_to_cache 13659976
Core_3_L1D_wq_full 0

Core_3_L1D_pq_access 0
Core_3_L1D_pq_forward 0
Core_3_L1D_pq_merged 0
Core_3_L1D_pq_to_cache 0
Core_3_L1D_pq_full 0

Core_3_L1D_acc_epochs 173904
Core_3_L1D_acc_level_0 173904
Core_3_L1D_acc_level_1 0
Core_3_L1D_acc_level_2 0
Core_3_L1D_acc_level_3 0
Core_3_L1D_acc_level_4 0
Core_3_L1D_acc_level_5 0
Core_3_L1D_acc_level_6 0
Core_3_L1D_acc_level_7 0
Core_3_L1D_acc_level_8 0
Core_3_L1D_acc_level_9 0

Core_3_L1I_total_access 32615050
Core_3_L1I_total_hit 26372114
Core_3_L1I_total_miss 6242936
Core_3_L1I_loads 32615050
Core_3_L1I_load_hit 26372114
Core_3_L1I_load_miss 6242936
Core_3_L1I_RFOs 0
Core_3_L1I_RFO_hit 0
Core_3_L1I_RFO_miss 0
Core_3_L1I_prefetches 0
Core_3_L1I_prefetch_hit 0
Core_3_L1I_prefetch_miss 0
Core_3_L1I_writebacks 0
Core_3_L1I_writeback_hit 0
Core_3_L1I_writeback_miss 0
Core_3_L1I_prefetch_requested 0
Core_3_L1I_prefetch_dropped 0
Core_3_L1I_prefetch_issued 0
Core_3_L1I_prefetch_filled 0
Core_3_L1I_prefetch_useful 0
Core_3_L1I_prefetch_useless 0
Core_3_L1I_prefetch_late 0
Core_3_L1I_average_miss_latency 81.30003

Core_3_L1I_rq_access 150000012
Core_3_L1I_rq_forward 0
Core_3_L1I_rq_merged 113728163
Core_3_L1I_rq_to_cache 36271849
Core_3_L1I_rq_full 0

Core_3_L1I_wq_access 0
Core_3_L1I_wq_forward 0
Core_3_L1I_wq_merged 0
Core_3_L1I_wq_to_cache 0
Core_3_L1I_wq_full 0

Core_3_L1I_pq_access 0
Core_3_L1I_pq_forward 0
Core_3_L1I_pq_merged 0
Core_3_L1I_pq_to_cache 0
Core_3_L1I_pq_full 0

Core_3_L1I_acc_epochs 173904
Core_3_L1I_acc_level_0 173904
Core_3_L1I_acc_level_1 0
Core_3_L1I_acc_level_2 0
Core_3_L1I_acc_level_3 0
Core_3_L1I_acc_level_4 0
Core_3_L1I_acc_level_5 0
Core_3_L1I_acc_level_6 0
Core_3_L1I_acc_level_7 0
Core_3_L1I_acc_level_8 0
Core_3_L1I_acc_level_9 0

Core_3_L2C_total_access 18324245
Core_3_L2C_total_hit 16678460
Core_3_L2C_total_miss 1645785
Core_3_L2C_loads 8385090
Core_3_L2C_load_hit 7617912
Core_3_L2C_load_miss 767178
Core_3_L2C_RFOs 827591
Core_3_L2C_RFO_hit 449355
Core_3_L2C_RFO_miss 378236
Core_3_L2C_prefetches 7962690
Core_3_L2C_prefetch_hit 7486663
Core_3_L2C_prefetch_miss 476027
Core_3_L2C_writebacks 1148874
Core_3_L2C_writeback_hit 1124530
Core_3_L2C_writeback_miss 24344
Core_3_L2C_prefetch_requested 11123187
Core_3_L2C_prefetch_dropped 0
Core_3_L2C_prefetch_issued 11123187
Core_3_L2C_prefetch_filled 741551
Core_3_L2C_prefetch_useful 376068
Core_3_L2C_prefetch_useless 364509
Core_3_L2C_prefetch_late 277095
Core_3_L2C_average_miss_latency 109.42778

Core_3_L2C_rq_access 9213300
Core_3_L2C_rq_forward 0
Core_3_L2C_rq_merged 0
Core_3_L2C_rq_to_cache 9212681
Core_3_L2C_rq_full 0

Core_3_L2C_wq_access 1148874
Core_3_L2C_wq_forward 619
Core_3_L2C_wq_merged 0
Core_3_L2C_wq_to_cache 1148874
Core_3_L2C_wq_full 0

Core_3_L2C_pq_access 11123187
Core_3_L2C_pq_forward 0
Core_3_L2C_pq_merged 0
Core_3_L2C_pq_to_cache 11123187
Core_3_L2C_pq_full 0

Core_3_L2C_acc_epochs 173904
Core_3_L2C_acc_level_0 41688
Core_3_L2C_acc_level_1 28437
Core_3_L2C_acc_level_2 26848
Core_3_L2C_acc_level_3 20416
Core_3_L2C_acc_level_4 12359
Core_3_L2C_acc_level_5 17396
Core_3_L2C_acc_level_6 9275
Core_3_L2C_acc_level_7 5935
Core_3_L2C_acc_level_8 3332
Core_3_L2C_acc_level_9 8218

Core_3_LLC_total_access 2119244
Core_3_LLC_total_hit 1529339
Core_3_LLC_total_miss 589905
Core_3_LLC_loads 498530
Core_3_LLC_load_hit 398069
Core_3_LLC_load_miss 100461
Core_3_LLC_RFOs 377960
Core_3_LLC_RFO_hit 254041
Core_3_LLC_RFO_miss 123919
Core_3_LLC_prefetches 744889
Core_3_LLC_prefetch_hit 411605
Core_3_LLC_prefetch_miss 333284
Core_3_LLC_writebacks 497865
Core_3_LLC_writeback_hit 465624
Core_3_LLC_writeback_miss 32241
Core_3_LLC_prefetch_requested 0
Core_3_LLC_prefetch_dropped 0
Core_3_LLC_prefetch_issued 0
Core_3_LLC_prefetch_filled 2495701
Core_3_LLC_prefetch_useful 44361
Core_3_LLC_prefetch_useless 2411141
Core_3_LLC_prefetch_late 7
Core_3_LLC_average_miss_latency 715.42842

Core_3_LLC_rq_access 3445293
Core_3_LLC_rq_forward 0
Core_3_LLC_rq_merged 0
Core_3_LLC_rq_to_cache 3445049
Core_3_LLC_rq_full 0

Core_3_LLC_wq_access 1869448
Core_3_LLC_wq_forward 261
Core_3_LLC_wq_merged 0
Core_3_LLC_wq_to_cache 1869448
Core_3_LLC_wq_full 0

Core_3_LLC_pq_access 4842336
Core_3_LLC_pq_forward 0
Core_3_LLC_pq_merged 0
Core_3_LLC_pq_to_cache 4842317
Core_3_LLC_pq_full 0

Core_3_LLC_acc_epochs 635061
Core_3_LLC_acc_level_0 612119
Core_3_LLC_acc_level_1 10971
Core_3_LLC_acc_level_2 5819
Core_3_LLC_acc_level_3 1153
Core_3_LLC_acc_level_4 234
Core_3_LLC_acc_level_5 3295
Core_3_LLC_acc_level_6 247
Core_3_LLC_acc_level_7 300
Core_3_LLC_acc_level_8 59
Core_3_LLC_acc_level_9 864

Core_3_major_page_fault 0
Core_3_minor_page_fault 17867

[CoopPythia Stats]
 - Useful prefetches: 35531998
 - Final alpha: 0.10000
[CoopPythia Stats]
 - Useful prefetches: 35531998
 - Final alpha: 0.10000
[CoopPythia Stats]
 - Useful prefetches: 35531998
 - Final alpha: 0.10000
[CoopPythia Stats]
 - Useful prefetches: 35531998
 - Final alpha: 0.10000
Channel_0_RQ_row_buffer_hit 481258
Channel_0_RQ_row_buffer_miss 870430
Channel_0_WQ_row_buffer_hit 86020
Channel_0_WQ_row_buffer_miss 163879
Channel_0_WQ_full 0
Channel_0_dbus_congested 251746

Channel_1_RQ_row_buffer_hit 473368
Channel_1_RQ_row_buffer_miss 858266
Channel_1_WQ_row_buffer_hit 84355
Channel_1_WQ_row_buffer_miss 164464
Channel_1_WQ_full 0
Channel_1_dbus_congested 246468

avg_congested_cycle 9

DRAM_bw_pochs 2540241
DRAM_bw_level_0 2422450
DRAM_bw_level_1 98457
DRAM_bw_level_2 17949
DRAM_bw_level_3 1385
