*************************************************
   ChampSim Multicore Out-of-Order Simulator
   Last compiled: Apr 16 2025 16:08:46
*************************************************
parsing config file: /pref/Pythia/config/coop_pythia.ini
unable to parse section: , name: bool coop_rl_enable, value: true
unable to parse section: , name: coop_enable_adaptive_alpha, value: true

trace_0 /pref/Pythia/NUTCH/traces/nutch_phase2_core0.trace.xz
trace_1 /pref/Pythia/NUTCH/traces/nutch_phase2_core1.trace.xz
trace_2 /pref/Pythia/NUTCH/traces/nutch_phase2_core2.trace.xz
trace_3 /pref/Pythia/NUTCH/traces/nutch_phase2_core3.trace.xz
Initialize SHIP state
warmup_instructions 50000000
simulation_instructions 150000000
champsim_seed 7158
measure_ipc 0
measure_ipc_epoch 1000
measure_dram_bw 1
measure_dram_bw_epoch 256
measure_cache_acc 1
measure_cache_acc_epoch 1024
l1d_perfect 0
l2c_perfect 0
llc_perfect 0
l1d_semi_perfect 0
l2c_semi_perfect 0
llc_semi_perfect 0
semi_perfect_cache_page_buffer_size 64

num_cpus 4
cpu_freq 4000
dram_io_freq 2400
page_size 4096
block_size 64
max_read_per_cycle 8
max_fill_per_cycle 1
dram_channels 2
log2_dram_channels 1
dram_ranks 1
dram_banks 8
dram_rows 65536
dram_columns 128
dram_row_size 8
dram_size 8192
dram_pages 2097152
======= Prefetcher Knob Settings =======
coop_enable_multicore: 0
coop_enable_bw_throttling: 1
coop_rl_enable: 0
coop_rl_ipc_threshold: 
coop_rl_alpha_high_ipc: 0.05
coop_rl_alpha_low_ipc: 0.01
coop_rl_bw_threshold: 10
========================================
fetch_width 6
decode_width 6
exec_width 4
lq_width 2
sq_width 2
retire_width 4
scheduler_size 128
branch_mispredict_penalty 20
rob_size 256
lq_size 72
sq_size 56
num_instr_destinations_sparc 4
num_instr_destinations 2
num_instr_sources 4

itlb_set 16
itlb_way 8
itlb_rq_size 16
itlb_wq_size 16
itlb_pq_size 0
itlb_mshr_size 8
itlb_latency 1

dtlb_set 16
dtlb_way 4
dtlb_rq_size 16
dtlb_wq_size 16
dtlb_pq_size 0
dtlb_mshr_size 8
dtlb_latency 1

stlb_set 128
stlb_way 12
stlb_rq_size 32
stlb_wq_size 32
stlb_pq_size 0
stlb_mshr_size 16
stlb_latency 8

l1i_size 32
l1i_set 64
l1i_way 8
l1i_rq_size 64
l1i_wq_size 64
l1i_pq_size 8
l1i_mshr_size 8
l1i_latency 1

l1d_size 32
l1d_set 64
l1d_way 8
l1d_rq_size 64
l1d_wq_size 64
l1d_pq_size 32
l1d_mshr_size 16
l1d_latency 4

l2c_size 256
l2c_set 512
l2c_way 8
l2c_rq_size 128
l2c_wq_size 32
l2c_pq_size 128
l2c_mshr_size 128
l2c_latency 10

llc_size 8192
llc_set 8192
llc_way 16
llc_rq_size 256
llc_wq_size 512
llc_pq_size 128
llc_mshr_size 256
llc_latency 20

dram_channel_width 8
dram_wq_size 64
dram_rq_size 64
tRP 15
tRCD 15
tCAS 12.5
dram_dbus_turn_around_time 30
dram_write_high_wm 56
dram_write_low_wm 48
min_dram_writes_per_switch 16
dram_mtps 2400
dram_dbus_return_time 13

[CoopPythia Config]
 - Bandwidth-aware throttling: Enabled
 - Multicore cooperation: Disabled
 - RL Enabled: No
 - Adaptive Alpha: Enabled
 - IPC Threshold: 4
 - BW Threshold: 10
 - Alpha High: 0.05
 - Alpha Low: 0.01

Heartbeat CPU  3 instructions:    1000001 cycles:     598560 heartbeat IPC: 1.67068 cumulative IPC: 1.67068 (Simulation time: 0 hr 0 min 6 sec) 
Heartbeat CPU  0 instructions:    1000002 cycles:     617560 heartbeat IPC: 1.61928 cumulative IPC: 1.61928 (Simulation time: 0 hr 0 min 6 sec) 
Heartbeat CPU  1 instructions:    1000001 cycles:     648292 heartbeat IPC: 1.54252 cumulative IPC: 1.54252 (Simulation time: 0 hr 0 min 6 sec) 
Heartbeat CPU  2 instructions:    1000001 cycles:     649160 heartbeat IPC: 1.54045 cumulative IPC: 1.54045 (Simulation time: 0 hr 0 min 6 sec) 
Heartbeat CPU  3 instructions:    2000001 cycles:    1196846 heartbeat IPC: 1.67144 cumulative IPC: 1.67106 (Simulation time: 0 hr 0 min 11 sec) 
Heartbeat CPU  0 instructions:    2000001 cycles:    1252194 heartbeat IPC: 1.57571 cumulative IPC: 1.59720 (Simulation time: 0 hr 0 min 12 sec) 
Heartbeat CPU  1 instructions:    2000002 cycles:    1296420 heartbeat IPC: 1.54291 cumulative IPC: 1.54271 (Simulation time: 0 hr 0 min 12 sec) 
Heartbeat CPU  2 instructions:    2000001 cycles:    1298218 heartbeat IPC: 1.54069 cumulative IPC: 1.54057 (Simulation time: 0 hr 0 min 12 sec) 
Heartbeat CPU  3 instructions:    3000001 cycles:    1795125 heartbeat IPC: 1.67146 cumulative IPC: 1.67119 (Simulation time: 0 hr 0 min 17 sec) 
Heartbeat CPU  0 instructions:    3000000 cycles:    1864282 heartbeat IPC: 1.63375 cumulative IPC: 1.60920 (Simulation time: 0 hr 0 min 18 sec) 
Heartbeat CPU  1 instructions:    3000000 cycles:    1944540 heartbeat IPC: 1.54292 cumulative IPC: 1.54278 (Simulation time: 0 hr 0 min 19 sec) 
Heartbeat CPU  2 instructions:    3000000 cycles:    1947261 heartbeat IPC: 1.54073 cumulative IPC: 1.54063 (Simulation time: 0 hr 0 min 19 sec) 
Heartbeat CPU  3 instructions:    4000000 cycles:    2393413 heartbeat IPC: 1.67143 cumulative IPC: 1.67125 (Simulation time: 0 hr 0 min 23 sec) 
Heartbeat CPU  0 instructions:    4000000 cycles:    2440630 heartbeat IPC: 1.73506 cumulative IPC: 1.63892 (Simulation time: 0 hr 0 min 23 sec) 
Heartbeat CPU  1 instructions:    4000000 cycles:    2592664 heartbeat IPC: 1.54291 cumulative IPC: 1.54281 (Simulation time: 0 hr 0 min 25 sec) 
Heartbeat CPU  2 instructions:    4000000 cycles:    2596322 heartbeat IPC: 1.54069 cumulative IPC: 1.54064 (Simulation time: 0 hr 0 min 25 sec) 
Heartbeat CPU  3 instructions:    5000001 cycles:    2991693 heartbeat IPC: 1.67146 cumulative IPC: 1.67129 (Simulation time: 0 hr 0 min 29 sec) 
Heartbeat CPU  0 instructions:    5000000 cycles:    3011972 heartbeat IPC: 1.75027 cumulative IPC: 1.66004 (Simulation time: 0 hr 0 min 29 sec) 
Heartbeat CPU  1 instructions:    5000002 cycles:    3240759 heartbeat IPC: 1.54299 cumulative IPC: 1.54285 (Simulation time: 0 hr 0 min 31 sec) 
Heartbeat CPU  2 instructions:    5000000 cycles:    3245372 heartbeat IPC: 1.54071 cumulative IPC: 1.54066 (Simulation time: 0 hr 0 min 31 sec) 
Heartbeat CPU  3 instructions:    6000001 cycles:    3589981 heartbeat IPC: 1.67144 cumulative IPC: 1.67132 (Simulation time: 0 hr 0 min 34 sec) 
Heartbeat CPU  0 instructions:    6000001 cycles:    3626878 heartbeat IPC: 1.62627 cumulative IPC: 1.65432 (Simulation time: 0 hr 0 min 34 sec) 
Heartbeat CPU  1 instructions:    6000000 cycles:    3888893 heartbeat IPC: 1.54289 cumulative IPC: 1.54286 (Simulation time: 0 hr 0 min 37 sec) 
Heartbeat CPU  2 instructions:    6000000 cycles:    3894425 heartbeat IPC: 1.54071 cumulative IPC: 1.54066 (Simulation time: 0 hr 0 min 37 sec) 
Heartbeat CPU  3 instructions:    7000001 cycles:    4188261 heartbeat IPC: 1.67146 cumulative IPC: 1.67134 (Simulation time: 0 hr 0 min 40 sec) 
Heartbeat CPU  0 instructions:    7000001 cycles:    4200588 heartbeat IPC: 1.74304 cumulative IPC: 1.66643 (Simulation time: 0 hr 0 min 40 sec) 
Heartbeat CPU  1 instructions:    7000003 cycles:    4536935 heartbeat IPC: 1.54311 cumulative IPC: 1.54289 (Simulation time: 0 hr 0 min 43 sec) 
Heartbeat CPU  2 instructions:    7000002 cycles:    4543470 heartbeat IPC: 1.54073 cumulative IPC: 1.54067 (Simulation time: 0 hr 0 min 43 sec) 
Heartbeat CPU  0 instructions:    8000000 cycles:    4737435 heartbeat IPC: 1.86273 cumulative IPC: 1.68868 (Simulation time: 0 hr 0 min 45 sec) 
Heartbeat CPU  3 instructions:    8000000 cycles:    4786546 heartbeat IPC: 1.67144 cumulative IPC: 1.67135 (Simulation time: 0 hr 0 min 45 sec) 
Heartbeat CPU  1 instructions:    8000000 cycles:    5184999 heartbeat IPC: 1.54305 cumulative IPC: 1.54291 (Simulation time: 0 hr 0 min 49 sec) 
Heartbeat CPU  2 instructions:    8000000 cycles:    5192526 heartbeat IPC: 1.54070 cumulative IPC: 1.54068 (Simulation time: 0 hr 0 min 49 sec) 
Heartbeat CPU  0 instructions:    9000003 cycles:    5273550 heartbeat IPC: 1.86528 cumulative IPC: 1.70663 (Simulation time: 0 hr 0 min 50 sec) 
Heartbeat CPU  3 instructions:    9000001 cycles:    5384830 heartbeat IPC: 1.67145 cumulative IPC: 1.67136 (Simulation time: 0 hr 0 min 51 sec) 
Heartbeat CPU  1 instructions:    9000001 cycles:    5833087 heartbeat IPC: 1.54300 cumulative IPC: 1.54292 (Simulation time: 0 hr 0 min 55 sec) 
Heartbeat CPU  2 instructions:    9000001 cycles:    5841584 heartbeat IPC: 1.54070 cumulative IPC: 1.54068 (Simulation time: 0 hr 0 min 55 sec) 
Heartbeat CPU  3 instructions:   10000001 cycles:    5983115 heartbeat IPC: 1.67144 cumulative IPC: 1.67137 (Simulation time: 0 hr 0 min 57 sec) 
Heartbeat CPU  0 instructions:   10000002 cycles:    6121150 heartbeat IPC: 1.17980 cumulative IPC: 1.63368 (Simulation time: 0 hr 0 min 58 sec) 
Heartbeat CPU  1 instructions:   10000002 cycles:    6481019 heartbeat IPC: 1.54337 cumulative IPC: 1.54297 (Simulation time: 0 hr 1 min 1 sec) 
Heartbeat CPU  2 instructions:   10000001 cycles:    6490632 heartbeat IPC: 1.54072 cumulative IPC: 1.54068 (Simulation time: 0 hr 1 min 2 sec) 
Heartbeat CPU  3 instructions:   11000001 cycles:    6581397 heartbeat IPC: 1.67145 cumulative IPC: 1.67138 (Simulation time: 0 hr 1 min 2 sec) 
Heartbeat CPU  0 instructions:   11000000 cycles:    6617008 heartbeat IPC: 2.01670 cumulative IPC: 1.66238 (Simulation time: 0 hr 1 min 3 sec) 
Heartbeat CPU  0 instructions:   12000000 cycles:    7061192 heartbeat IPC: 2.25132 cumulative IPC: 1.69943 (Simulation time: 0 hr 1 min 8 sec) 
Heartbeat CPU  1 instructions:   11000002 cycles:    7129050 heartbeat IPC: 1.54314 cumulative IPC: 1.54298 (Simulation time: 0 hr 1 min 8 sec) 
Heartbeat CPU  2 instructions:   11000002 cycles:    7139686 heartbeat IPC: 1.54071 cumulative IPC: 1.54068 (Simulation time: 0 hr 1 min 8 sec) 
Heartbeat CPU  3 instructions:   12000000 cycles:    7179681 heartbeat IPC: 1.67145 cumulative IPC: 1.67138 (Simulation time: 0 hr 1 min 9 sec) 
Heartbeat CPU  0 instructions:   13000001 cycles:    7509170 heartbeat IPC: 2.23225 cumulative IPC: 1.73122 (Simulation time: 0 hr 1 min 12 sec) 
Heartbeat CPU  1 instructions:   12000000 cycles:    7777073 heartbeat IPC: 1.54315 cumulative IPC: 1.54300 (Simulation time: 0 hr 1 min 15 sec) 
Heartbeat CPU  3 instructions:   13000002 cycles:    7779721 heartbeat IPC: 1.66656 cumulative IPC: 1.67101 (Simulation time: 0 hr 1 min 15 sec) 
Heartbeat CPU  2 instructions:   12000000 cycles:    7788738 heartbeat IPC: 1.54071 cumulative IPC: 1.54069 (Simulation time: 0 hr 1 min 15 sec) 
Heartbeat CPU  0 instructions:   14000000 cycles:    7947563 heartbeat IPC: 2.28106 cumulative IPC: 1.76155 (Simulation time: 0 hr 1 min 17 sec) 
Heartbeat CPU  3 instructions:   14000002 cycles:    8381416 heartbeat IPC: 1.66197 cumulative IPC: 1.67036 (Simulation time: 0 hr 1 min 22 sec) 
Heartbeat CPU  0 instructions:   15000003 cycles:    8386253 heartbeat IPC: 2.27952 cumulative IPC: 1.78864 (Simulation time: 0 hr 1 min 22 sec) 
Heartbeat CPU  1 instructions:   13000002 cycles:    8426579 heartbeat IPC: 1.53963 cumulative IPC: 1.54274 (Simulation time: 0 hr 1 min 22 sec) 
Heartbeat CPU  2 instructions:   13000001 cycles:    8439106 heartbeat IPC: 1.53759 cumulative IPC: 1.54045 (Simulation time: 0 hr 1 min 22 sec) 
Heartbeat CPU  0 instructions:   16000000 cycles:    8828870 heartbeat IPC: 2.25928 cumulative IPC: 1.81224 (Simulation time: 0 hr 1 min 26 sec) 
Heartbeat CPU  3 instructions:   15000002 cycles:    8983111 heartbeat IPC: 1.66197 cumulative IPC: 1.66980 (Simulation time: 0 hr 1 min 28 sec) 
Heartbeat CPU  1 instructions:   14000000 cycles:    9074629 heartbeat IPC: 1.54309 cumulative IPC: 1.54276 (Simulation time: 0 hr 1 min 29 sec) 
Heartbeat CPU  2 instructions:   14000002 cycles:    9087225 heartbeat IPC: 1.54293 cumulative IPC: 1.54062 (Simulation time: 0 hr 1 min 29 sec) 
Heartbeat CPU  0 instructions:   17000003 cycles:    9273566 heartbeat IPC: 2.24873 cumulative IPC: 1.83317 (Simulation time: 0 hr 1 min 31 sec) 
Heartbeat CPU  3 instructions:   16000000 cycles:    9584807 heartbeat IPC: 1.66197 cumulative IPC: 1.66931 (Simulation time: 0 hr 1 min 34 sec) 
Heartbeat CPU  0 instructions:   18000001 cycles:    9716071 heartbeat IPC: 2.25986 cumulative IPC: 1.85260 (Simulation time: 0 hr 1 min 36 sec) 
Heartbeat CPU  1 instructions:   15000001 cycles:    9722669 heartbeat IPC: 1.54312 cumulative IPC: 1.54279 (Simulation time: 0 hr 1 min 36 sec) 
Heartbeat CPU  2 instructions:   15000002 cycles:    9735346 heartbeat IPC: 1.54292 cumulative IPC: 1.54078 (Simulation time: 0 hr 1 min 36 sec) 
Heartbeat CPU  0 instructions:   19000003 cycles:   10165005 heartbeat IPC: 2.22750 cumulative IPC: 1.86916 (Simulation time: 0 hr 1 min 40 sec) 
Heartbeat CPU  3 instructions:   17000002 cycles:   10186503 heartbeat IPC: 1.66197 cumulative IPC: 1.66888 (Simulation time: 0 hr 1 min 41 sec) 
Heartbeat CPU  1 instructions:   16000000 cycles:   10370677 heartbeat IPC: 1.54319 cumulative IPC: 1.54281 (Simulation time: 0 hr 1 min 42 sec) 
Heartbeat CPU  2 instructions:   16000000 cycles:   10383462 heartbeat IPC: 1.54293 cumulative IPC: 1.54091 (Simulation time: 0 hr 1 min 43 sec) 
Heartbeat CPU  0 instructions:   20000000 cycles:   10634731 heartbeat IPC: 2.12889 cumulative IPC: 1.88063 (Simulation time: 0 hr 1 min 45 sec) 
Heartbeat CPU  3 instructions:   18000002 cycles:   10788199 heartbeat IPC: 1.66197 cumulative IPC: 1.66849 (Simulation time: 0 hr 1 min 47 sec) 
Heartbeat CPU  1 instructions:   17000000 cycles:   11018724 heartbeat IPC: 1.54310 cumulative IPC: 1.54283 (Simulation time: 0 hr 1 min 49 sec) 
Heartbeat CPU  2 instructions:   17000001 cycles:   11031576 heartbeat IPC: 1.54294 cumulative IPC: 1.54103 (Simulation time: 0 hr 1 min 49 sec) 
Heartbeat CPU  0 instructions:   21000000 cycles:   11103760 heartbeat IPC: 2.13206 cumulative IPC: 1.89125 (Simulation time: 0 hr 1 min 50 sec) 
Heartbeat CPU  3 instructions:   19000002 cycles:   11389896 heartbeat IPC: 1.66197 cumulative IPC: 1.66815 (Simulation time: 0 hr 1 min 53 sec) 
Heartbeat CPU  0 instructions:   22000001 cycles:   11572098 heartbeat IPC: 2.13521 cumulative IPC: 1.90112 (Simulation time: 0 hr 1 min 55 sec) 
Heartbeat CPU  1 instructions:   18000003 cycles:   11666753 heartbeat IPC: 1.54315 cumulative IPC: 1.54285 (Simulation time: 0 hr 1 min 56 sec) 
Heartbeat CPU  2 instructions:   18000003 cycles:   11679699 heartbeat IPC: 1.54292 cumulative IPC: 1.54114 (Simulation time: 0 hr 1 min 56 sec) 
Heartbeat CPU  3 instructions:   20000000 cycles:   11991589 heartbeat IPC: 1.66197 cumulative IPC: 1.66784 (Simulation time: 0 hr 1 min 59 sec) 
Heartbeat CPU  0 instructions:   23000000 cycles:   12031703 heartbeat IPC: 2.17578 cumulative IPC: 1.91162 (Simulation time: 0 hr 2 min 0 sec) 
Heartbeat CPU  1 instructions:   19000000 cycles:   12314793 heartbeat IPC: 1.54311 cumulative IPC: 1.54286 (Simulation time: 0 hr 2 min 2 sec) 
Heartbeat CPU  2 instructions:   19000000 cycles:   12327816 heartbeat IPC: 1.54293 cumulative IPC: 1.54123 (Simulation time: 0 hr 2 min 2 sec) 
Heartbeat CPU  3 instructions:   21000002 cycles:   12593288 heartbeat IPC: 1.66196 cumulative IPC: 1.66756 (Simulation time: 0 hr 2 min 5 sec) 
Heartbeat CPU  0 instructions:   24000000 cycles:   12597396 heartbeat IPC: 1.76774 cumulative IPC: 1.90516 (Simulation time: 0 hr 2 min 5 sec) 
Heartbeat CPU  1 instructions:   20000000 cycles:   12962821 heartbeat IPC: 1.54314 cumulative IPC: 1.54287 (Simulation time: 0 hr 2 min 8 sec) 
Heartbeat CPU  2 instructions:   20000000 cycles:   12975930 heartbeat IPC: 1.54294 cumulative IPC: 1.54132 (Simulation time: 0 hr 2 min 8 sec) 
Heartbeat CPU  3 instructions:   22000002 cycles:   13194983 heartbeat IPC: 1.66197 cumulative IPC: 1.66730 (Simulation time: 0 hr 2 min 10 sec) 
Heartbeat CPU  0 instructions:   25000001 cycles:   13238347 heartbeat IPC: 1.56018 cumulative IPC: 1.88845 (Simulation time: 0 hr 2 min 11 sec) 
Heartbeat CPU  1 instructions:   21000002 cycles:   13610865 heartbeat IPC: 1.54311 cumulative IPC: 1.54289 (Simulation time: 0 hr 2 min 14 sec) 
Heartbeat CPU  2 instructions:   21000002 cycles:   13624046 heartbeat IPC: 1.54294 cumulative IPC: 1.54139 (Simulation time: 0 hr 2 min 14 sec) 
Heartbeat CPU  3 instructions:   23000002 cycles:   13796677 heartbeat IPC: 1.66197 cumulative IPC: 1.66707 (Simulation time: 0 hr 2 min 16 sec) 
Heartbeat CPU  0 instructions:   26000001 cycles:   13881287 heartbeat IPC: 1.55536 cumulative IPC: 1.87303 (Simulation time: 0 hr 2 min 17 sec) 
Heartbeat CPU  1 instructions:   22000002 cycles:   14258907 heartbeat IPC: 1.54311 cumulative IPC: 1.54290 (Simulation time: 0 hr 2 min 20 sec) 
Heartbeat CPU  2 instructions:   22000000 cycles:   14272164 heartbeat IPC: 1.54293 cumulative IPC: 1.54146 (Simulation time: 0 hr 2 min 21 sec) 
Heartbeat CPU  3 instructions:   24000000 cycles:   14398373 heartbeat IPC: 1.66197 cumulative IPC: 1.66685 (Simulation time: 0 hr 2 min 22 sec) 
Heartbeat CPU  0 instructions:   27000000 cycles:   14502801 heartbeat IPC: 1.60897 cumulative IPC: 1.86171 (Simulation time: 0 hr 2 min 23 sec) 
Heartbeat CPU  1 instructions:   23000000 cycles:   14906969 heartbeat IPC: 1.54306 cumulative IPC: 1.54290 (Simulation time: 0 hr 2 min 27 sec) 
Heartbeat CPU  2 instructions:   23000000 cycles:   14920288 heartbeat IPC: 1.54291 cumulative IPC: 1.54153 (Simulation time: 0 hr 2 min 27 sec) 
Heartbeat CPU  3 instructions:   25000002 cycles:   15000069 heartbeat IPC: 1.66197 cumulative IPC: 1.66666 (Simulation time: 0 hr 2 min 27 sec) 
Heartbeat CPU  0 instructions:   28000000 cycles:   15114841 heartbeat IPC: 1.63388 cumulative IPC: 1.85248 (Simulation time: 0 hr 2 min 29 sec) 
Heartbeat CPU  1 instructions:   24000000 cycles:   15555002 heartbeat IPC: 1.54313 cumulative IPC: 1.54291 (Simulation time: 0 hr 2 min 33 sec) 
Heartbeat CPU  2 instructions:   24000000 cycles:   15568397 heartbeat IPC: 1.54295 cumulative IPC: 1.54158 (Simulation time: 0 hr 2 min 33 sec) 
Heartbeat CPU  3 instructions:   26000002 cycles:   15601765 heartbeat IPC: 1.66197 cumulative IPC: 1.66648 (Simulation time: 0 hr 2 min 33 sec) 
Heartbeat CPU  0 instructions:   29000000 cycles:   15717072 heartbeat IPC: 1.66049 cumulative IPC: 1.84513 (Simulation time: 0 hr 2 min 34 sec) 
Heartbeat CPU  1 instructions:   25000001 cycles:   16203040 heartbeat IPC: 1.54312 cumulative IPC: 1.54292 (Simulation time: 0 hr 2 min 39 sec) 
Heartbeat CPU  3 instructions:   27000002 cycles:   16203459 heartbeat IPC: 1.66197 cumulative IPC: 1.66631 (Simulation time: 0 hr 2 min 39 sec) 
Heartbeat CPU  2 instructions:   25000000 cycles:   16216518 heartbeat IPC: 1.54292 cumulative IPC: 1.54164 (Simulation time: 0 hr 2 min 39 sec) 
Heartbeat CPU  0 instructions:   30000002 cycles:   16252207 heartbeat IPC: 1.86869 cumulative IPC: 1.84590 (Simulation time: 0 hr 2 min 40 sec) 
Heartbeat CPU  0 instructions:   31000000 cycles:   16736393 heartbeat IPC: 2.06532 cumulative IPC: 1.85225 (Simulation time: 0 hr 2 min 44 sec) 
Heartbeat CPU  3 instructions:   28000000 cycles:   16805158 heartbeat IPC: 1.66196 cumulative IPC: 1.66616 (Simulation time: 0 hr 2 min 45 sec) 
Heartbeat CPU  1 instructions:   26000000 cycles:   16851073 heartbeat IPC: 1.54313 cumulative IPC: 1.54293 (Simulation time: 0 hr 2 min 46 sec) 
Heartbeat CPU  2 instructions:   26000002 cycles:   16864637 heartbeat IPC: 1.54293 cumulative IPC: 1.54169 (Simulation time: 0 hr 2 min 46 sec) 
Heartbeat CPU  0 instructions:   32000000 cycles:   17216327 heartbeat IPC: 2.08362 cumulative IPC: 1.85870 (Simulation time: 0 hr 2 min 49 sec) 
Heartbeat CPU  3 instructions:   29000002 cycles:   17406853 heartbeat IPC: 1.66197 cumulative IPC: 1.66601 (Simulation time: 0 hr 2 min 51 sec) 
Heartbeat CPU  1 instructions:   27000000 cycles:   17499103 heartbeat IPC: 1.54314 cumulative IPC: 1.54294 (Simulation time: 0 hr 2 min 52 sec) 
Heartbeat CPU  2 instructions:   27000000 cycles:   17512751 heartbeat IPC: 1.54294 cumulative IPC: 1.54173 (Simulation time: 0 hr 2 min 52 sec) 
Heartbeat CPU  0 instructions:   33000002 cycles:   17698550 heartbeat IPC: 2.07373 cumulative IPC: 1.86456 (Simulation time: 0 hr 2 min 54 sec) 
Heartbeat CPU  3 instructions:   30000002 cycles:   18008550 heartbeat IPC: 1.66197 cumulative IPC: 1.66588 (Simulation time: 0 hr 2 min 57 sec) 
Heartbeat CPU  1 instructions:   28000000 cycles:   18147150 heartbeat IPC: 1.54310 cumulative IPC: 1.54294 (Simulation time: 0 hr 2 min 59 sec) 
Heartbeat CPU  2 instructions:   28000000 cycles:   18160865 heartbeat IPC: 1.54294 cumulative IPC: 1.54178 (Simulation time: 0 hr 2 min 59 sec) 
Heartbeat CPU  0 instructions:   34000002 cycles:   18173200 heartbeat IPC: 2.10682 cumulative IPC: 1.87089 (Simulation time: 0 hr 2 min 59 sec) 
Heartbeat CPU  3 instructions:   31000002 cycles:   18610243 heartbeat IPC: 1.66198 cumulative IPC: 1.66575 (Simulation time: 0 hr 3 min 4 sec) 
Heartbeat CPU  0 instructions:   35000002 cycles:   18648720 heartbeat IPC: 2.10296 cumulative IPC: 1.87680 (Simulation time: 0 hr 3 min 4 sec) 
Heartbeat CPU  1 instructions:   29000000 cycles:   18795138 heartbeat IPC: 1.54324 cumulative IPC: 1.54295 (Simulation time: 0 hr 3 min 5 sec) 
Heartbeat CPU  2 instructions:   29000001 cycles:   18808984 heartbeat IPC: 1.54293 cumulative IPC: 1.54182 (Simulation time: 0 hr 3 min 6 sec) 
Heartbeat CPU  0 instructions:   36000000 cycles:   19119759 heartbeat IPC: 2.12296 cumulative IPC: 1.88287 (Simulation time: 0 hr 3 min 9 sec) 
Heartbeat CPU  3 instructions:   32000000 cycles:   19211939 heartbeat IPC: 1.66197 cumulative IPC: 1.66563 (Simulation time: 0 hr 3 min 10 sec) 
Heartbeat CPU  1 instructions:   30000003 cycles:   19443166 heartbeat IPC: 1.54315 cumulative IPC: 1.54296 (Simulation time: 0 hr 3 min 12 sec) 
Heartbeat CPU  2 instructions:   30000001 cycles:   19457104 heartbeat IPC: 1.54292 cumulative IPC: 1.54185 (Simulation time: 0 hr 3 min 12 sec) 
Heartbeat CPU  0 instructions:   37000001 cycles:   19588280 heartbeat IPC: 2.13438 cumulative IPC: 1.88888 (Simulation time: 0 hr 3 min 13 sec) 
Heartbeat CPU  3 instructions:   33000002 cycles:   19818905 heartbeat IPC: 1.64754 cumulative IPC: 1.66508 (Simulation time: 0 hr 3 min 16 sec) 
Heartbeat CPU  0 instructions:   38000000 cycles:   20058568 heartbeat IPC: 2.12635 cumulative IPC: 1.89445 (Simulation time: 0 hr 3 min 18 sec) 
Heartbeat CPU  1 instructions:   31000001 cycles:   20091184 heartbeat IPC: 1.54316 cumulative IPC: 1.54297 (Simulation time: 0 hr 3 min 19 sec) 
Heartbeat CPU  2 instructions:   31000000 cycles:   20105218 heartbeat IPC: 1.54294 cumulative IPC: 1.54189 (Simulation time: 0 hr 3 min 19 sec) 
Heartbeat CPU  3 instructions:   34000002 cycles:   20417933 heartbeat IPC: 1.66937 cumulative IPC: 1.66520 (Simulation time: 0 hr 3 min 22 sec) 
Heartbeat CPU  0 instructions:   39000002 cycles:   20604125 heartbeat IPC: 1.83299 cumulative IPC: 1.89283 (Simulation time: 0 hr 3 min 23 sec) 
Heartbeat CPU  1 instructions:   32000000 cycles:   20739228 heartbeat IPC: 1.54310 cumulative IPC: 1.54297 (Simulation time: 0 hr 3 min 25 sec) 
Heartbeat CPU  2 instructions:   32000000 cycles:   20753338 heartbeat IPC: 1.54292 cumulative IPC: 1.54192 (Simulation time: 0 hr 3 min 25 sec) 
Heartbeat CPU  3 instructions:   35000002 cycles:   21016951 heartbeat IPC: 1.66940 cumulative IPC: 1.66532 (Simulation time: 0 hr 3 min 27 sec) 
Heartbeat CPU  0 instructions:   40000000 cycles:   21183785 heartbeat IPC: 1.72515 cumulative IPC: 1.88824 (Simulation time: 0 hr 3 min 29 sec) 
Heartbeat CPU  1 instructions:   33000000 cycles:   21399190 heartbeat IPC: 1.51524 cumulative IPC: 1.54211 (Simulation time: 0 hr 3 min 31 sec) 
Heartbeat CPU  2 instructions:   33000000 cycles:   21401970 heartbeat IPC: 1.54171 cumulative IPC: 1.54191 (Simulation time: 0 hr 3 min 31 sec) 
Heartbeat CPU  3 instructions:   36000000 cycles:   21615982 heartbeat IPC: 1.66936 cumulative IPC: 1.66543 (Simulation time: 0 hr 3 min 33 sec) 
Heartbeat CPU  0 instructions:   41000001 cycles:   21700002 heartbeat IPC: 1.93717 cumulative IPC: 1.88940 (Simulation time: 0 hr 3 min 34 sec) 
Heartbeat CPU  1 instructions:   34000000 cycles:   22047265 heartbeat IPC: 1.54303 cumulative IPC: 1.54214 (Simulation time: 0 hr 3 min 37 sec) 
Heartbeat CPU  2 instructions:   34000000 cycles:   22049830 heartbeat IPC: 1.54354 cumulative IPC: 1.54196 (Simulation time: 0 hr 3 min 37 sec) 
Heartbeat CPU  3 instructions:   37000002 cycles:   22215001 heartbeat IPC: 1.66940 cumulative IPC: 1.66554 (Simulation time: 0 hr 3 min 39 sec) 
Heartbeat CPU  0 instructions:   42000000 cycles:   22352881 heartbeat IPC: 1.53168 cumulative IPC: 1.87895 (Simulation time: 0 hr 3 min 40 sec) 
Heartbeat CPU  1 instructions:   35000000 cycles:   22695345 heartbeat IPC: 1.54302 cumulative IPC: 1.54217 (Simulation time: 0 hr 3 min 43 sec) 
Heartbeat CPU  2 instructions:   35000000 cycles:   22697692 heartbeat IPC: 1.54354 cumulative IPC: 1.54201 (Simulation time: 0 hr 3 min 43 sec) 
Heartbeat CPU  3 instructions:   38000002 cycles:   22814029 heartbeat IPC: 1.66937 cumulative IPC: 1.66564 (Simulation time: 0 hr 3 min 44 sec) 
Heartbeat CPU  0 instructions:   43000002 cycles:   23031805 heartbeat IPC: 1.47292 cumulative IPC: 1.86698 (Simulation time: 0 hr 3 min 46 sec) 
Heartbeat CPU  1 instructions:   36000000 cycles:   23343404 heartbeat IPC: 1.54307 cumulative IPC: 1.54219 (Simulation time: 0 hr 3 min 49 sec) 
Heartbeat CPU  2 instructions:   36000000 cycles:   23345558 heartbeat IPC: 1.54353 cumulative IPC: 1.54205 (Simulation time: 0 hr 3 min 49 sec) 
Heartbeat CPU  3 instructions:   39000002 cycles:   23413050 heartbeat IPC: 1.66939 cumulative IPC: 1.66574 (Simulation time: 0 hr 3 min 50 sec) 
Heartbeat CPU  0 instructions:   44000000 cycles:   23506419 heartbeat IPC: 2.10697 cumulative IPC: 1.87183 (Simulation time: 0 hr 3 min 51 sec) 
Heartbeat CPU  0 instructions:   45000001 cycles:   23974079 heartbeat IPC: 2.13831 cumulative IPC: 1.87703 (Simulation time: 0 hr 3 min 56 sec) 
Heartbeat CPU  1 instructions:   37000000 cycles:   23991471 heartbeat IPC: 1.54305 cumulative IPC: 1.54221 (Simulation time: 0 hr 3 min 56 sec) 
Heartbeat CPU  2 instructions:   37000000 cycles:   23993411 heartbeat IPC: 1.54356 cumulative IPC: 1.54209 (Simulation time: 0 hr 3 min 56 sec) 
Heartbeat CPU  3 instructions:   40000000 cycles:   24012079 heartbeat IPC: 1.66936 cumulative IPC: 1.66583 (Simulation time: 0 hr 3 min 57 sec) 
Heartbeat CPU  0 instructions:   46000001 cycles:   24444334 heartbeat IPC: 2.12651 cumulative IPC: 1.88183 (Simulation time: 0 hr 4 min 1 sec) 
Heartbeat CPU  3 instructions:   41000002 cycles:   24611100 heartbeat IPC: 1.66939 cumulative IPC: 1.66592 (Simulation time: 0 hr 4 min 3 sec) 
Heartbeat CPU  1 instructions:   38000001 cycles:   24639534 heartbeat IPC: 1.54306 cumulative IPC: 1.54224 (Simulation time: 0 hr 4 min 3 sec) 
Heartbeat CPU  2 instructions:   38000002 cycles:   24641277 heartbeat IPC: 1.54353 cumulative IPC: 1.54213 (Simulation time: 0 hr 4 min 3 sec) 
Heartbeat CPU  0 instructions:   47000000 cycles:   25040575 heartbeat IPC: 1.67717 cumulative IPC: 1.87695 (Simulation time: 0 hr 4 min 7 sec) 
Heartbeat CPU  3 instructions:   42000002 cycles:   25210126 heartbeat IPC: 1.66938 cumulative IPC: 1.66600 (Simulation time: 0 hr 4 min 8 sec) 
Heartbeat CPU  1 instructions:   39000001 cycles:   25287587 heartbeat IPC: 1.54308 cumulative IPC: 1.54226 (Simulation time: 0 hr 4 min 9 sec) 
Heartbeat CPU  2 instructions:   39000000 cycles:   25289140 heartbeat IPC: 1.54353 cumulative IPC: 1.54216 (Simulation time: 0 hr 4 min 9 sec) 
Heartbeat CPU  0 instructions:   48000000 cycles:   25532202 heartbeat IPC: 2.03406 cumulative IPC: 1.87998 (Simulation time: 0 hr 4 min 12 sec) 
Heartbeat CPU  3 instructions:   43000002 cycles:   25809148 heartbeat IPC: 1.66939 cumulative IPC: 1.66608 (Simulation time: 0 hr 4 min 15 sec) 
Heartbeat CPU  1 instructions:   40000000 cycles:   25935660 heartbeat IPC: 1.54303 cumulative IPC: 1.54228 (Simulation time: 0 hr 4 min 16 sec) 
Heartbeat CPU  2 instructions:   40000000 cycles:   25937003 heartbeat IPC: 1.54354 cumulative IPC: 1.54220 (Simulation time: 0 hr 4 min 16 sec) 
Heartbeat CPU  0 instructions:   49000003 cycles:   26016886 heartbeat IPC: 2.06321 cumulative IPC: 1.88339 (Simulation time: 0 hr 4 min 17 sec) 
Heartbeat CPU  3 instructions:   44000000 cycles:   26408173 heartbeat IPC: 1.66938 cumulative IPC: 1.66615 (Simulation time: 0 hr 4 min 21 sec) 
Heartbeat CPU  0 instructions:   50000002 cycles:   26507875 heartbeat IPC: 2.03670 cumulative IPC: 1.88623 (Simulation time: 0 hr 4 min 22 sec) 
Heartbeat CPU  1 instructions:   41000002 cycles:   26583747 heartbeat IPC: 1.54301 cumulative IPC: 1.54230 (Simulation time: 0 hr 4 min 22 sec) 
Heartbeat CPU  2 instructions:   41000001 cycles:   26584859 heartbeat IPC: 1.54355 cumulative IPC: 1.54223 (Simulation time: 0 hr 4 min 22 sec) 
Heartbeat CPU  3 instructions:   45000002 cycles:   27007194 heartbeat IPC: 1.66939 cumulative IPC: 1.66622 (Simulation time: 0 hr 4 min 27 sec) 
Heartbeat CPU  0 instructions:   51000003 cycles:   27014246 heartbeat IPC: 1.97484 cumulative IPC: 0.03702 (Simulation time: 0 hr 4 min 27 sec) 
Heartbeat CPU  1 instructions:   42000002 cycles:   27231824 heartbeat IPC: 1.54303 cumulative IPC: 1.54231 (Simulation time: 0 hr 4 min 29 sec) 
Heartbeat CPU  2 instructions:   42000000 cycles:   27232724 heartbeat IPC: 1.54353 cumulative IPC: 1.54226 (Simulation time: 0 hr 4 min 29 sec) 
Heartbeat CPU  0 instructions:   52000000 cycles:   27516878 heartbeat IPC: 1.98952 cumulative IPC: 0.07268 (Simulation time: 0 hr 4 min 32 sec) 
Heartbeat CPU  3 instructions:   46000002 cycles:   27606222 heartbeat IPC: 1.66937 cumulative IPC: 1.66629 (Simulation time: 0 hr 4 min 33 sec) 
Heartbeat CPU  1 instructions:   43000001 cycles:   27879877 heartbeat IPC: 1.54308 cumulative IPC: 1.54233 (Simulation time: 0 hr 4 min 36 sec) 
Heartbeat CPU  2 instructions:   43000000 cycles:   27880588 heartbeat IPC: 1.54353 cumulative IPC: 1.54229 (Simulation time: 0 hr 4 min 36 sec) 
Heartbeat CPU  0 instructions:   53000000 cycles:   28024759 heartbeat IPC: 1.96897 cumulative IPC: 0.10705 (Simulation time: 0 hr 4 min 37 sec) 
Heartbeat CPU  3 instructions:   47000002 cycles:   28205244 heartbeat IPC: 1.66939 cumulative IPC: 1.66636 (Simulation time: 0 hr 4 min 39 sec) 
Heartbeat CPU  0 instructions:   54000001 cycles:   28512094 heartbeat IPC: 2.05198 cumulative IPC: 0.14029 (Simulation time: 0 hr 4 min 42 sec) 
Heartbeat CPU  1 instructions:   44000000 cycles:   28527751 heartbeat IPC: 1.54351 cumulative IPC: 1.54236 (Simulation time: 0 hr 4 min 42 sec) 
Heartbeat CPU  2 instructions:   44000000 cycles:   28528446 heartbeat IPC: 1.54355 cumulative IPC: 1.54232 (Simulation time: 0 hr 4 min 42 sec) 
Heartbeat CPU  3 instructions:   48000000 cycles:   28804270 heartbeat IPC: 1.66937 cumulative IPC: 1.66642 (Simulation time: 0 hr 4 min 45 sec) 
Heartbeat CPU  0 instructions:   55000000 cycles:   28999295 heartbeat IPC: 2.05254 cumulative IPC: 0.17242 (Simulation time: 0 hr 4 min 47 sec) 
Heartbeat CPU  1 instructions:   45000000 cycles:   29175609 heartbeat IPC: 1.54355 cumulative IPC: 1.54238 (Simulation time: 0 hr 4 min 49 sec) 
Heartbeat CPU  2 instructions:   45000001 cycles:   29176306 heartbeat IPC: 1.54354 cumulative IPC: 1.54235 (Simulation time: 0 hr 4 min 49 sec) 
Heartbeat CPU  3 instructions:   49000002 cycles:   29403292 heartbeat IPC: 1.66939 cumulative IPC: 1.66648 (Simulation time: 0 hr 4 min 51 sec) 
Heartbeat CPU  0 instructions:   56000000 cycles:   29583266 heartbeat IPC: 1.71241 cumulative IPC: 0.20282 (Simulation time: 0 hr 4 min 53 sec) 
Heartbeat CPU  1 instructions:   46000001 cycles:   29823574 heartbeat IPC: 1.54329 cumulative IPC: 1.54240 (Simulation time: 0 hr 4 min 55 sec) 
Heartbeat CPU  2 instructions:   46000001 cycles:   29824168 heartbeat IPC: 1.54354 cumulative IPC: 1.54237 (Simulation time: 0 hr 4 min 55 sec) 
Heartbeat CPU  3 instructions:   50000002 cycles:   30002317 heartbeat IPC: 1.66938 cumulative IPC: 1.66654 (Simulation time: 0 hr 4 min 57 sec) 
Heartbeat CPU  0 instructions:   57000000 cycles:   30097845 heartbeat IPC: 1.94334 cumulative IPC: 0.23257 (Simulation time: 0 hr 4 min 58 sec) 
Heartbeat CPU  1 instructions:   47000002 cycles:   30471765 heartbeat IPC: 1.54276 cumulative IPC: 1.54241 (Simulation time: 0 hr 5 min 1 sec) 
Heartbeat CPU  2 instructions:   47000001 cycles:   30472029 heartbeat IPC: 1.54354 cumulative IPC: 1.54240 (Simulation time: 0 hr 5 min 1 sec) 
Heartbeat CPU  3 instructions:   51000002 cycles:   30601339 heartbeat IPC: 1.66939 cumulative IPC: 0.03268 (Simulation time: 0 hr 5 min 3 sec) 
Heartbeat CPU  0 instructions:   58000003 cycles:   30674692 heartbeat IPC: 1.73357 cumulative IPC: 0.26080 (Simulation time: 0 hr 5 min 3 sec) 
Heartbeat CPU  1 instructions:   48000000 cycles:   31119880 heartbeat IPC: 1.54293 cumulative IPC: 1.54242 (Simulation time: 0 hr 5 min 7 sec) 
Heartbeat CPU  2 instructions:   48000000 cycles:   31119888 heartbeat IPC: 1.54354 cumulative IPC: 1.54242 (Simulation time: 0 hr 5 min 7 sec) 
Heartbeat CPU  3 instructions:   52000000 cycles:   31200366 heartbeat IPC: 1.66937 cumulative IPC: 0.06410 (Simulation time: 0 hr 5 min 8 sec) 
Heartbeat CPU  0 instructions:   59000003 cycles:   31319962 heartbeat IPC: 1.54974 cumulative IPC: 0.28736 (Simulation time: 0 hr 5 min 9 sec) 
Heartbeat CPU  2 instructions:   49000002 cycles:   31767753 heartbeat IPC: 1.54353 cumulative IPC: 1.54244 (Simulation time: 0 hr 5 min 13 sec) 
Heartbeat CPU  1 instructions:   49000000 cycles:   31767994 heartbeat IPC: 1.54294 cumulative IPC: 1.54243 (Simulation time: 0 hr 5 min 13 sec) 
Heartbeat CPU  3 instructions:   53000003 cycles:   31800797 heartbeat IPC: 1.66548 cumulative IPC: 0.09434 (Simulation time: 0 hr 5 min 14 sec) 
Heartbeat CPU  0 instructions:   60000000 cycles:   32010428 heartbeat IPC: 1.44829 cumulative IPC: 0.31240 (Simulation time: 0 hr 5 min 15 sec) 
Heartbeat CPU  3 instructions:   54000003 cycles:   32404456 heartbeat IPC: 1.65656 cumulative IPC: 0.12344 (Simulation time: 0 hr 5 min 19 sec) 
Heartbeat CPU  2 instructions:   50000002 cycles:   32415614 heartbeat IPC: 1.54354 cumulative IPC: 1.54247 (Simulation time: 0 hr 5 min 19 sec) 
Heartbeat CPU  1 instructions:   50000001 cycles:   32416099 heartbeat IPC: 1.54296 cumulative IPC: 1.54244 (Simulation time: 0 hr 5 min 19 sec) 

Warmup complete CPU  0 instructions:   60634936 cycles:   32416099 (Simulation time: 0 hr 5 min 19 sec) 
Warmup complete CPU  1 instructions:   50000001 cycles:   32416099 (Simulation time: 0 hr 5 min 19 sec) 
Warmup complete CPU  2 instructions:   50000755 cycles:   32416099 (Simulation time: 0 hr 5 min 19 sec) 
Warmup complete CPU  3 instructions:   54019293 cycles:   32416099 (Simulation time: 0 hr 5 min 19 sec) 

Heartbeat CPU  0 instructions:   61000000 cycles:   32826823 heartbeat IPC: 1.22490 cumulative IPC: 0.88883 (Simulation time: 0 hr 5 min 23 sec) 
Heartbeat CPU  1 instructions:   51000001 cycles:   33068489 heartbeat IPC: 1.53283 cumulative IPC: 1.53283 (Simulation time: 0 hr 5 min 26 sec) 
Heartbeat CPU  2 instructions:   51000001 cycles:   33073697 heartbeat IPC: 1.51956 cumulative IPC: 1.51954 (Simulation time: 0 hr 5 min 26 sec) 
Heartbeat CPU  3 instructions:   55000001 cycles:   33100166 heartbeat IPC: 1.43738 cumulative IPC: 1.43364 (Simulation time: 0 hr 5 min 26 sec) 
Heartbeat CPU  1 instructions:   52000000 cycles:   33720994 heartbeat IPC: 1.53255 cumulative IPC: 1.53269 (Simulation time: 0 hr 5 min 33 sec) 
Heartbeat CPU  2 instructions:   52000000 cycles:   33731727 heartbeat IPC: 1.51969 cumulative IPC: 1.51961 (Simulation time: 0 hr 5 min 33 sec) 
Heartbeat CPU  3 instructions:   56000000 cycles:   33797626 heartbeat IPC: 1.43377 cumulative IPC: 1.43371 (Simulation time: 0 hr 5 min 34 sec) 
Heartbeat CPU  0 instructions:   62000001 cycles:   33863769 heartbeat IPC: 0.96437 cumulative IPC: 0.94294 (Simulation time: 0 hr 5 min 34 sec) 
Heartbeat CPU  2 instructions:   53000002 cycles:   34395646 heartbeat IPC: 1.50621 cumulative IPC: 1.51512 (Simulation time: 0 hr 5 min 40 sec) 
Heartbeat CPU  3 instructions:   57000003 cycles:   34495141 heartbeat IPC: 1.43367 cumulative IPC: 1.43369 (Simulation time: 0 hr 5 min 40 sec) 
Heartbeat CPU  1 instructions:   53000003 cycles:   34626263 heartbeat IPC: 1.10465 cumulative IPC: 1.35737 (Simulation time: 0 hr 5 min 42 sec) 
Heartbeat CPU  2 instructions:   54000001 cycles:   35048153 heartbeat IPC: 1.53255 cumulative IPC: 1.51944 (Simulation time: 0 hr 5 min 46 sec) 
Heartbeat CPU  0 instructions:   63000002 cycles:   35068693 heartbeat IPC: 0.82993 cumulative IPC: 0.89160 (Simulation time: 0 hr 5 min 46 sec) 
Heartbeat CPU  3 instructions:   58000001 cycles:   35192633 heartbeat IPC: 1.43371 cumulative IPC: 1.43370 (Simulation time: 0 hr 5 min 48 sec) 
Heartbeat CPU  1 instructions:   54000001 cycles:   35278645 heartbeat IPC: 1.53284 cumulative IPC: 1.39736 (Simulation time: 0 hr 5 min 48 sec) 
Heartbeat CPU  2 instructions:   55000000 cycles:   35700650 heartbeat IPC: 1.53257 cumulative IPC: 1.52205 (Simulation time: 0 hr 5 min 53 sec) 
Heartbeat CPU  3 instructions:   59000001 cycles:   35890106 heartbeat IPC: 1.43375 cumulative IPC: 1.43371 (Simulation time: 0 hr 5 min 55 sec) 
Heartbeat CPU  1 instructions:   55000001 cycles:   35931250 heartbeat IPC: 1.53232 cumulative IPC: 1.42241 (Simulation time: 0 hr 5 min 55 sec) 
Heartbeat CPU  2 instructions:   56000000 cycles:   36353099 heartbeat IPC: 1.53269 cumulative IPC: 1.52381 (Simulation time: 0 hr 6 min 0 sec) 
Heartbeat CPU  0 instructions:   64000000 cycles:   36427061 heartbeat IPC: 0.73618 cumulative IPC: 0.83897 (Simulation time: 0 hr 6 min 0 sec) 
Heartbeat CPU  1 instructions:   56000000 cycles:   36583396 heartbeat IPC: 1.53340 cumulative IPC: 1.43978 (Simulation time: 0 hr 6 min 2 sec) 
Heartbeat CPU  3 instructions:   60000000 cycles:   36587607 heartbeat IPC: 1.43369 cumulative IPC: 1.43370 (Simulation time: 0 hr 6 min 2 sec) 
Heartbeat CPU  2 instructions:   57000000 cycles:   37005616 heartbeat IPC: 1.53253 cumulative IPC: 1.52505 (Simulation time: 0 hr 6 min 6 sec) 
Heartbeat CPU  1 instructions:   57000001 cycles:   37235396 heartbeat IPC: 1.53374 cumulative IPC: 1.45249 (Simulation time: 0 hr 6 min 9 sec) 
Heartbeat CPU  3 instructions:   61000003 cycles:   37288994 heartbeat IPC: 1.42575 cumulative IPC: 1.43256 (Simulation time: 0 hr 6 min 9 sec) 
Heartbeat CPU  2 instructions:   58000003 cycles:   37658152 heartbeat IPC: 1.53249 cumulative IPC: 1.52598 (Simulation time: 0 hr 6 min 13 sec) 
Heartbeat CPU  1 instructions:   58000001 cycles:   37887816 heartbeat IPC: 1.53276 cumulative IPC: 1.46206 (Simulation time: 0 hr 6 min 15 sec) 
Heartbeat CPU  0 instructions:   65000002 cycles:   37979854 heartbeat IPC: 0.64400 cumulative IPC: 0.78455 (Simulation time: 0 hr 6 min 16 sec) 
Heartbeat CPU  3 instructions:   62000003 cycles:   37990132 heartbeat IPC: 1.42625 cumulative IPC: 1.43177 (Simulation time: 0 hr 6 min 16 sec) 
Heartbeat CPU  2 instructions:   59000001 cycles:   38310636 heartbeat IPC: 1.53260 cumulative IPC: 1.52671 (Simulation time: 0 hr 6 min 19 sec) 
Heartbeat CPU  1 instructions:   59000003 cycles:   38538966 heartbeat IPC: 1.53575 cumulative IPC: 1.46990 (Simulation time: 0 hr 6 min 21 sec) 
Heartbeat CPU  3 instructions:   63000003 cycles:   38691200 heartbeat IPC: 1.42640 cumulative IPC: 1.43117 (Simulation time: 0 hr 6 min 22 sec) 
Heartbeat CPU  2 instructions:   60000000 cycles:   38963093 heartbeat IPC: 1.53267 cumulative IPC: 1.52730 (Simulation time: 0 hr 6 min 25 sec) 
Heartbeat CPU  1 instructions:   60000000 cycles:   39189884 heartbeat IPC: 1.53629 cumulative IPC: 1.47628 (Simulation time: 0 hr 6 min 27 sec) 
Heartbeat CPU  3 instructions:   64000000 cycles:   39392324 heartbeat IPC: 1.42628 cumulative IPC: 1.43067 (Simulation time: 0 hr 6 min 29 sec) 
Heartbeat CPU  2 instructions:   61000000 cycles:   39613741 heartbeat IPC: 1.53693 cumulative IPC: 1.52817 (Simulation time: 0 hr 6 min 31 sec) 
Heartbeat CPU  1 instructions:   61000001 cycles:   39910764 heartbeat IPC: 1.38719 cumulative IPC: 1.46771 (Simulation time: 0 hr 6 min 33 sec) 
Heartbeat CPU  3 instructions:   65000003 cycles:   40093466 heartbeat IPC: 1.42625 cumulative IPC: 1.43027 (Simulation time: 0 hr 6 min 35 sec) 
Heartbeat CPU  0 instructions:   66000002 cycles:   40181674 heartbeat IPC: 0.45417 cumulative IPC: 0.69088 (Simulation time: 0 hr 6 min 36 sec) 
Heartbeat CPU  2 instructions:   62000001 cycles:   40263794 heartbeat IPC: 1.53834 cumulative IPC: 1.52902 (Simulation time: 0 hr 6 min 37 sec) 
Heartbeat CPU  1 instructions:   62000001 cycles:   40566521 heartbeat IPC: 1.52496 cumulative IPC: 1.47232 (Simulation time: 0 hr 6 min 40 sec) 
Heartbeat CPU  3 instructions:   66000003 cycles:   40794488 heartbeat IPC: 1.42649 cumulative IPC: 1.42995 (Simulation time: 0 hr 6 min 42 sec) 
Heartbeat CPU  2 instructions:   63000003 cycles:   40913792 heartbeat IPC: 1.53847 cumulative IPC: 1.52974 (Simulation time: 0 hr 6 min 43 sec) 
Heartbeat CPU  1 instructions:   63000003 cycles:   41220270 heartbeat IPC: 1.52964 cumulative IPC: 1.47657 (Simulation time: 0 hr 6 min 47 sec) 
Heartbeat CPU  3 instructions:   67000003 cycles:   41495644 heartbeat IPC: 1.42622 cumulative IPC: 1.42967 (Simulation time: 0 hr 6 min 49 sec) 
Heartbeat CPU  2 instructions:   64000000 cycles:   41563800 heartbeat IPC: 1.53844 cumulative IPC: 1.53036 (Simulation time: 0 hr 6 min 50 sec) 
Heartbeat CPU  0 instructions:   67000002 cycles:   41627685 heartbeat IPC: 0.69156 cumulative IPC: 0.69098 (Simulation time: 0 hr 6 min 51 sec) 
Heartbeat CPU  1 instructions:   64000000 cycles:   41873536 heartbeat IPC: 1.53077 cumulative IPC: 1.48032 (Simulation time: 0 hr 6 min 54 sec) 
Heartbeat CPU  3 instructions:   68000000 cycles:   42196764 heartbeat IPC: 1.42629 cumulative IPC: 1.42942 (Simulation time: 0 hr 6 min 57 sec) 
Heartbeat CPU  2 instructions:   65000001 cycles:   42213820 heartbeat IPC: 1.53842 cumulative IPC: 1.53089 (Simulation time: 0 hr 6 min 57 sec) 
Heartbeat CPU  1 instructions:   65000003 cycles:   42528624 heartbeat IPC: 1.52652 cumulative IPC: 1.48331 (Simulation time: 0 hr 7 min 0 sec) 
Heartbeat CPU  2 instructions:   66000003 cycles:   42863843 heartbeat IPC: 1.53841 cumulative IPC: 1.53136 (Simulation time: 0 hr 7 min 3 sec) 
Heartbeat CPU  3 instructions:   69000003 cycles:   42897924 heartbeat IPC: 1.42621 cumulative IPC: 1.42921 (Simulation time: 0 hr 7 min 3 sec) 
Heartbeat CPU  1 instructions:   66000003 cycles:   43184825 heartbeat IPC: 1.52392 cumulative IPC: 1.48578 (Simulation time: 0 hr 7 min 6 sec) 
Heartbeat CPU  0 instructions:   68000000 cycles:   43281622 heartbeat IPC: 0.60462 cumulative IPC: 0.67784 (Simulation time: 0 hr 7 min 7 sec) 
Heartbeat CPU  2 instructions:   67000003 cycles:   43513831 heartbeat IPC: 1.53849 cumulative IPC: 1.53178 (Simulation time: 0 hr 7 min 9 sec) 
Heartbeat CPU  3 instructions:   70000003 cycles:   43598992 heartbeat IPC: 1.42640 cumulative IPC: 1.42903 (Simulation time: 0 hr 7 min 10 sec) 
Heartbeat CPU  1 instructions:   67000001 cycles:   43840147 heartbeat IPC: 1.52596 cumulative IPC: 1.48809 (Simulation time: 0 hr 7 min 12 sec) 
Heartbeat CPU  2 instructions:   68000000 cycles:   44163836 heartbeat IPC: 1.53845 cumulative IPC: 1.53215 (Simulation time: 0 hr 7 min 15 sec) 
Heartbeat CPU  3 instructions:   71000003 cycles:   44300125 heartbeat IPC: 1.42626 cumulative IPC: 1.42887 (Simulation time: 0 hr 7 min 17 sec) 
Heartbeat CPU  1 instructions:   68000000 cycles:   44496702 heartbeat IPC: 1.52310 cumulative IPC: 1.48999 (Simulation time: 0 hr 7 min 18 sec) 
Heartbeat CPU  2 instructions:   69000003 cycles:   44813899 heartbeat IPC: 1.53832 cumulative IPC: 1.53247 (Simulation time: 0 hr 7 min 21 sec) 
Heartbeat CPU  3 instructions:   72000000 cycles:   45001174 heartbeat IPC: 1.42643 cumulative IPC: 1.42873 (Simulation time: 0 hr 7 min 23 sec) 
Heartbeat CPU  1 instructions:   69000000 cycles:   45151595 heartbeat IPC: 1.52697 cumulative IPC: 1.49189 (Simulation time: 0 hr 7 min 25 sec) 
Heartbeat CPU  2 instructions:   70000001 cycles:   45463907 heartbeat IPC: 1.53844 cumulative IPC: 1.53277 (Simulation time: 0 hr 7 min 27 sec) 
Heartbeat CPU  0 instructions:   69000000 cycles:   45589117 heartbeat IPC: 0.43337 cumulative IPC: 0.63502 (Simulation time: 0 hr 7 min 29 sec) 
Heartbeat CPU  3 instructions:   73000001 cycles:   45717613 heartbeat IPC: 1.39579 cumulative IPC: 1.42696 (Simulation time: 0 hr 7 min 30 sec) 
Heartbeat CPU  1 instructions:   70000001 cycles:   45802990 heartbeat IPC: 1.53517 cumulative IPC: 1.49400 (Simulation time: 0 hr 7 min 31 sec) 
Heartbeat CPU  2 instructions:   71000001 cycles:   46113916 heartbeat IPC: 1.53844 cumulative IPC: 1.53304 (Simulation time: 0 hr 7 min 34 sec) 
Heartbeat CPU  3 instructions:   74000001 cycles:   46410210 heartbeat IPC: 1.44384 cumulative IPC: 1.42779 (Simulation time: 0 hr 7 min 37 sec) 
Heartbeat CPU  1 instructions:   71000000 cycles:   46461936 heartbeat IPC: 1.51757 cumulative IPC: 1.49510 (Simulation time: 0 hr 7 min 37 sec) 
Heartbeat CPU  2 instructions:   72000000 cycles:   46763914 heartbeat IPC: 1.53846 cumulative IPC: 1.53328 (Simulation time: 0 hr 7 min 41 sec) 
Heartbeat CPU  0 instructions:   70000003 cycles:   46815732 heartbeat IPC: 0.81525 cumulative IPC: 0.65037 (Simulation time: 0 hr 7 min 41 sec) 
Heartbeat CPU  3 instructions:   75000001 cycles:   47102797 heartbeat IPC: 1.44386 cumulative IPC: 1.42855 (Simulation time: 0 hr 7 min 44 sec) 
Heartbeat CPU  1 instructions:   72000000 cycles:   47123504 heartbeat IPC: 1.51156 cumulative IPC: 1.49585 (Simulation time: 0 hr 7 min 44 sec) 
Heartbeat CPU  2 instructions:   73000001 cycles:   47420749 heartbeat IPC: 1.52245 cumulative IPC: 1.53281 (Simulation time: 0 hr 7 min 47 sec) 
Heartbeat CPU  3 instructions:   76000000 cycles:   47795395 heartbeat IPC: 1.44384 cumulative IPC: 1.42924 (Simulation time: 0 hr 7 min 51 sec) 
Heartbeat CPU  1 instructions:   73000001 cycles:   47811162 heartbeat IPC: 1.45421 cumulative IPC: 1.49399 (Simulation time: 0 hr 7 min 51 sec) 
Heartbeat CPU  2 instructions:   74000001 cycles:   48078029 heartbeat IPC: 1.52142 cumulative IPC: 1.53233 (Simulation time: 0 hr 7 min 53 sec) 
Heartbeat CPU  0 instructions:   71000000 cycles:   48456667 heartbeat IPC: 0.60941 cumulative IPC: 0.64618 (Simulation time: 0 hr 7 min 57 sec) 
Heartbeat CPU  1 instructions:   74000003 cycles:   48473310 heartbeat IPC: 1.51024 cumulative IPC: 1.49466 (Simulation time: 0 hr 7 min 57 sec) 
Heartbeat CPU  3 instructions:   77000001 cycles:   48488054 heartbeat IPC: 1.44371 cumulative IPC: 1.42986 (Simulation time: 0 hr 7 min 57 sec) 
Heartbeat CPU  2 instructions:   75000003 cycles:   48735388 heartbeat IPC: 1.52124 cumulative IPC: 1.53188 (Simulation time: 0 hr 8 min 0 sec) 
Heartbeat CPU  1 instructions:   75000001 cycles:   49135740 heartbeat IPC: 1.50959 cumulative IPC: 1.49525 (Simulation time: 0 hr 8 min 4 sec) 
Heartbeat CPU  3 instructions:   78000001 cycles:   49180613 heartbeat IPC: 1.44392 cumulative IPC: 1.43044 (Simulation time: 0 hr 8 min 4 sec) 
Heartbeat CPU  2 instructions:   76000000 cycles:   49392666 heartbeat IPC: 1.52142 cumulative IPC: 1.53148 (Simulation time: 0 hr 8 min 6 sec) 
Heartbeat CPU  1 instructions:   76000000 cycles:   49799102 heartbeat IPC: 1.50747 cumulative IPC: 1.49571 (Simulation time: 0 hr 8 min 10 sec) 
Heartbeat CPU  3 instructions:   79000001 cycles:   49873236 heartbeat IPC: 1.44379 cumulative IPC: 1.43097 (Simulation time: 0 hr 8 min 11 sec) 
Heartbeat CPU  2 instructions:   77000003 cycles:   50050070 heartbeat IPC: 1.52114 cumulative IPC: 1.53109 (Simulation time: 0 hr 8 min 12 sec) 
Heartbeat CPU  0 instructions:   72000000 cycles:   50429981 heartbeat IPC: 0.50676 cumulative IPC: 0.63091 (Simulation time: 0 hr 8 min 16 sec) 
Heartbeat CPU  1 instructions:   77000003 cycles:   50461497 heartbeat IPC: 1.50968 cumulative IPC: 1.49623 (Simulation time: 0 hr 8 min 16 sec) 
Heartbeat CPU  3 instructions:   80000000 cycles:   50565785 heartbeat IPC: 1.44394 cumulative IPC: 1.43147 (Simulation time: 0 hr 8 min 17 sec) 
Heartbeat CPU  2 instructions:   78000003 cycles:   50707364 heartbeat IPC: 1.52139 cumulative IPC: 1.53074 (Simulation time: 0 hr 8 min 19 sec) 
Heartbeat CPU  1 instructions:   78000001 cycles:   51123957 heartbeat IPC: 1.50952 cumulative IPC: 1.49670 (Simulation time: 0 hr 8 min 23 sec) 
Heartbeat CPU  3 instructions:   81000001 cycles:   51258449 heartbeat IPC: 1.44370 cumulative IPC: 1.43192 (Simulation time: 0 hr 8 min 24 sec) 
Heartbeat CPU  2 instructions:   79000001 cycles:   51364782 heartbeat IPC: 1.52110 cumulative IPC: 1.53041 (Simulation time: 0 hr 8 min 25 sec) 
Heartbeat CPU  1 instructions:   79000001 cycles:   51786554 heartbeat IPC: 1.50921 cumulative IPC: 1.49713 (Simulation time: 0 hr 8 min 29 sec) 
Heartbeat CPU  3 instructions:   82000001 cycles:   51951015 heartbeat IPC: 1.44391 cumulative IPC: 1.43234 (Simulation time: 0 hr 8 min 31 sec) 
Heartbeat CPU  2 instructions:   80000000 cycles:   52022073 heartbeat IPC: 1.52139 cumulative IPC: 1.53011 (Simulation time: 0 hr 8 min 31 sec) 
Heartbeat CPU  0 instructions:   73000003 cycles:   52304531 heartbeat IPC: 0.53346 cumulative IPC: 0.62172 (Simulation time: 0 hr 8 min 34 sec) 
Heartbeat CPU  1 instructions:   80000000 cycles:   52447399 heartbeat IPC: 1.51321 cumulative IPC: 1.49766 (Simulation time: 0 hr 8 min 35 sec) 
Heartbeat CPU  3 instructions:   83000001 cycles:   52643651 heartbeat IPC: 1.44376 cumulative IPC: 1.43273 (Simulation time: 0 hr 8 min 37 sec) 
Heartbeat CPU  2 instructions:   81000000 cycles:   52679436 heartbeat IPC: 1.52123 cumulative IPC: 1.52982 (Simulation time: 0 hr 8 min 38 sec) 
Heartbeat CPU  1 instructions:   81000001 cycles:   53109153 heartbeat IPC: 1.51114 cumulative IPC: 1.49809 (Simulation time: 0 hr 8 min 42 sec) 
Heartbeat CPU  3 instructions:   84000000 cycles:   53336255 heartbeat IPC: 1.44383 cumulative IPC: 1.43310 (Simulation time: 0 hr 8 min 44 sec) 
Heartbeat CPU  2 instructions:   82000001 cycles:   53336807 heartbeat IPC: 1.52121 cumulative IPC: 1.52955 (Simulation time: 0 hr 8 min 44 sec) 
Heartbeat CPU  1 instructions:   82000003 cycles:   53771541 heartbeat IPC: 1.50969 cumulative IPC: 1.49845 (Simulation time: 0 hr 8 min 48 sec) 
Heartbeat CPU  2 instructions:   83000000 cycles:   53994045 heartbeat IPC: 1.52152 cumulative IPC: 1.52930 (Simulation time: 0 hr 8 min 50 sec) 
Heartbeat CPU  3 instructions:   85000001 cycles:   54028839 heartbeat IPC: 1.44387 cumulative IPC: 1.43345 (Simulation time: 0 hr 8 min 50 sec) 
Heartbeat CPU  0 instructions:   74000000 cycles:   54231718 heartbeat IPC: 0.51889 cumulative IPC: 0.61264 (Simulation time: 0 hr 8 min 52 sec) 
Heartbeat CPU  1 instructions:   83000003 cycles:   54433966 heartbeat IPC: 1.50960 cumulative IPC: 1.49878 (Simulation time: 0 hr 8 min 54 sec) 
Heartbeat CPU  2 instructions:   84000000 cycles:   54651424 heartbeat IPC: 1.52119 cumulative IPC: 1.52906 (Simulation time: 0 hr 8 min 56 sec) 
Heartbeat CPU  3 instructions:   86000001 cycles:   54721435 heartbeat IPC: 1.44384 cumulative IPC: 1.43377 (Simulation time: 0 hr 8 min 57 sec) 
Heartbeat CPU  1 instructions:   84000000 cycles:   55096363 heartbeat IPC: 1.50966 cumulative IPC: 1.49910 (Simulation time: 0 hr 9 min 1 sec) 
Heartbeat CPU  2 instructions:   85000000 cycles:   55308687 heartbeat IPC: 1.52146 cumulative IPC: 1.52885 (Simulation time: 0 hr 9 min 3 sec) 
Heartbeat CPU  3 instructions:   87000001 cycles:   55414018 heartbeat IPC: 1.44387 cumulative IPC: 1.43407 (Simulation time: 0 hr 9 min 4 sec) 
Heartbeat CPU  1 instructions:   85000003 cycles:   55758611 heartbeat IPC: 1.51001 cumulative IPC: 1.49941 (Simulation time: 0 hr 9 min 7 sec) 
Heartbeat CPU  2 instructions:   86000003 cycles:   55966141 heartbeat IPC: 1.52102 cumulative IPC: 1.52863 (Simulation time: 0 hr 9 min 9 sec) 
Heartbeat CPU  3 instructions:   88000000 cycles:   56106658 heartbeat IPC: 1.44375 cumulative IPC: 1.43436 (Simulation time: 0 hr 9 min 10 sec) 
Heartbeat CPU  0 instructions:   75000003 cycles:   56276169 heartbeat IPC: 0.48913 cumulative IPC: 0.60205 (Simulation time: 0 hr 9 min 12 sec) 
Heartbeat CPU  1 instructions:   86000003 cycles:   56419657 heartbeat IPC: 1.51275 cumulative IPC: 1.49978 (Simulation time: 0 hr 9 min 13 sec) 
Heartbeat CPU  2 instructions:   87000001 cycles:   56623390 heartbeat IPC: 1.52149 cumulative IPC: 1.52843 (Simulation time: 0 hr 9 min 15 sec) 
Heartbeat CPU  3 instructions:   89000001 cycles:   56799295 heartbeat IPC: 1.44376 cumulative IPC: 1.43462 (Simulation time: 0 hr 9 min 17 sec) 
Heartbeat CPU  1 instructions:   87000001 cycles:   57081950 heartbeat IPC: 1.50990 cumulative IPC: 1.50005 (Simulation time: 0 hr 9 min 19 sec) 
Heartbeat CPU  2 instructions:   88000000 cycles:   57280791 heartbeat IPC: 1.52114 cumulative IPC: 1.52824 (Simulation time: 0 hr 9 min 21 sec) 
Heartbeat CPU  3 instructions:   90000001 cycles:   57491891 heartbeat IPC: 1.44384 cumulative IPC: 1.43488 (Simulation time: 0 hr 9 min 23 sec) 
Heartbeat CPU  1 instructions:   88000000 cycles:   57743566 heartbeat IPC: 1.51145 cumulative IPC: 1.50035 (Simulation time: 0 hr 9 min 26 sec) 
Heartbeat CPU  2 instructions:   89000000 cycles:   57938126 heartbeat IPC: 1.52129 cumulative IPC: 1.52806 (Simulation time: 0 hr 9 min 28 sec) 
Heartbeat CPU  3 instructions:   91000001 cycles:   58184468 heartbeat IPC: 1.44388 cumulative IPC: 1.43512 (Simulation time: 0 hr 9 min 30 sec) 
Heartbeat CPU  0 instructions:   76000000 cycles:   58271686 heartbeat IPC: 0.50112 cumulative IPC: 0.59426 (Simulation time: 0 hr 9 min 31 sec) 
Heartbeat CPU  1 instructions:   89000001 cycles:   58404907 heartbeat IPC: 1.51208 cumulative IPC: 1.50065 (Simulation time: 0 hr 9 min 32 sec) 
Heartbeat CPU  2 instructions:   90000001 cycles:   58595463 heartbeat IPC: 1.52129 cumulative IPC: 1.52789 (Simulation time: 0 hr 9 min 34 sec) 
Heartbeat CPU  3 instructions:   92000000 cycles:   58877089 heartbeat IPC: 1.44379 cumulative IPC: 1.43535 (Simulation time: 0 hr 9 min 36 sec) 
Heartbeat CPU  1 instructions:   90000001 cycles:   59066898 heartbeat IPC: 1.51059 cumulative IPC: 1.50089 (Simulation time: 0 hr 9 min 38 sec) 
Heartbeat CPU  2 instructions:   91000000 cycles:   59252823 heartbeat IPC: 1.52123 cumulative IPC: 1.52773 (Simulation time: 0 hr 9 min 40 sec) 
Heartbeat CPU  3 instructions:   93000003 cycles:   59572507 heartbeat IPC: 1.43799 cumulative IPC: 1.43541 (Simulation time: 0 hr 9 min 43 sec) 
Heartbeat CPU  1 instructions:   91000003 cycles:   59726352 heartbeat IPC: 1.51641 cumulative IPC: 1.50127 (Simulation time: 0 hr 9 min 45 sec) 
Heartbeat CPU  2 instructions:   92000000 cycles:   59910098 heartbeat IPC: 1.52143 cumulative IPC: 1.52758 (Simulation time: 0 hr 9 min 46 sec) 
Heartbeat CPU  3 instructions:   94000003 cycles:   60241570 heartbeat IPC: 1.49463 cumulative IPC: 1.43684 (Simulation time: 0 hr 9 min 50 sec) 
Heartbeat CPU  0 instructions:   77000001 cycles:   60274605 heartbeat IPC: 0.49927 cumulative IPC: 0.58744 (Simulation time: 0 hr 9 min 50 sec) 
Heartbeat CPU  1 instructions:   92000000 cycles:   60381671 heartbeat IPC: 1.52597 cumulative IPC: 1.50185 (Simulation time: 0 hr 9 min 51 sec) 
Heartbeat CPU  2 instructions:   93000002 cycles:   60571786 heartbeat IPC: 1.51129 cumulative IPC: 1.52720 (Simulation time: 0 hr 9 min 53 sec) 
Heartbeat CPU  3 instructions:   95000003 cycles:   60910599 heartbeat IPC: 1.49470 cumulative IPC: 1.43820 (Simulation time: 0 hr 9 min 56 sec) 
Heartbeat CPU  1 instructions:   93000000 cycles:   61039964 heartbeat IPC: 1.51908 cumulative IPC: 1.50224 (Simulation time: 0 hr 9 min 57 sec) 
Heartbeat CPU  2 instructions:   94000000 cycles:   61223275 heartbeat IPC: 1.53494 cumulative IPC: 1.52737 (Simulation time: 0 hr 9 min 59 sec) 
Heartbeat CPU  3 instructions:   96000000 cycles:   61579671 heartbeat IPC: 1.49460 cumulative IPC: 1.43949 (Simulation time: 0 hr 10 min 2 sec) 
Heartbeat CPU  1 instructions:   94000002 cycles:   61694598 heartbeat IPC: 1.52757 cumulative IPC: 1.50281 (Simulation time: 0 hr 10 min 3 sec) 
Heartbeat CPU  2 instructions:   95000000 cycles:   61874795 heartbeat IPC: 1.53487 cumulative IPC: 1.52754 (Simulation time: 0 hr 10 min 5 sec) 
Heartbeat CPU  3 instructions:   97000003 cycles:   62248781 heartbeat IPC: 1.49453 cumulative IPC: 1.44073 (Simulation time: 0 hr 10 min 9 sec) 
Heartbeat CPU  0 instructions:   78000003 cycles:   62267770 heartbeat IPC: 0.50172 cumulative IPC: 0.58171 (Simulation time: 0 hr 10 min 9 sec) 
Heartbeat CPU  1 instructions:   95000002 cycles:   62350053 heartbeat IPC: 1.52566 cumulative IPC: 1.50331 (Simulation time: 0 hr 10 min 10 sec) 
Heartbeat CPU  2 instructions:   96000000 cycles:   62526325 heartbeat IPC: 1.53485 cumulative IPC: 1.52770 (Simulation time: 0 hr 10 min 11 sec) 
Heartbeat CPU  3 instructions:   98000003 cycles:   62917903 heartbeat IPC: 1.49450 cumulative IPC: 1.44191 (Simulation time: 0 hr 10 min 15 sec) 
Heartbeat CPU  1 instructions:   96000000 cycles:   63003694 heartbeat IPC: 1.52989 cumulative IPC: 1.50388 (Simulation time: 0 hr 10 min 16 sec) 
Heartbeat CPU  2 instructions:   97000000 cycles:   63179553 heartbeat IPC: 1.53086 cumulative IPC: 1.52776 (Simulation time: 0 hr 10 min 18 sec) 
Heartbeat CPU  3 instructions:   99000003 cycles:   63586838 heartbeat IPC: 1.49491 cumulative IPC: 1.44304 (Simulation time: 0 hr 10 min 21 sec) 
Heartbeat CPU  1 instructions:   97000000 cycles:   63658186 heartbeat IPC: 1.52790 cumulative IPC: 1.50438 (Simulation time: 0 hr 10 min 22 sec) 
Heartbeat CPU  2 instructions:   98000000 cycles:   63832684 heartbeat IPC: 1.53109 cumulative IPC: 1.52783 (Simulation time: 0 hr 10 min 24 sec) 
*** Reached end of trace for Core: 3 Repeating trace: /pref/Pythia/NUTCH/traces/nutch_phase2_core3.trace.xz
Heartbeat CPU  3 instructions:  100000000 cycles:   64278025 heartbeat IPC: 1.44678 cumulative IPC: 1.44312 (Simulation time: 0 hr 10 min 28 sec) 
Heartbeat CPU  1 instructions:   98000000 cycles:   64312994 heartbeat IPC: 1.52717 cumulative IPC: 1.50485 (Simulation time: 0 hr 10 min 28 sec) 
Heartbeat CPU  0 instructions:   79000000 cycles:   64319055 heartbeat IPC: 0.48750 cumulative IPC: 0.57565 (Simulation time: 0 hr 10 min 28 sec) 
Heartbeat CPU  2 instructions:   99000002 cycles:   64485905 heartbeat IPC: 1.53088 cumulative IPC: 1.52789 (Simulation time: 0 hr 10 min 30 sec) 
Heartbeat CPU  3 instructions:  101000001 cycles:   64965277 heartbeat IPC: 1.45507 cumulative IPC: 1.44338 (Simulation time: 0 hr 10 min 35 sec) 
Heartbeat CPU  1 instructions:   99000002 cycles:   64967376 heartbeat IPC: 1.52816 cumulative IPC: 1.50532 (Simulation time: 0 hr 10 min 35 sec) 
*** Reached end of trace for Core: 2 Repeating trace: /pref/Pythia/NUTCH/traces/nutch_phase2_core2.trace.xz
Heartbeat CPU  2 instructions:  100000000 cycles:   65139475 heartbeat IPC: 1.53005 cumulative IPC: 1.52794 (Simulation time: 0 hr 10 min 36 sec) 
*** Reached end of trace for Core: 1 Repeating trace: /pref/Pythia/NUTCH/traces/nutch_phase2_core1.trace.xz
Heartbeat CPU  1 instructions:  100000000 cycles:   65628543 heartbeat IPC: 1.51247 cumulative IPC: 1.50546 (Simulation time: 0 hr 10 min 41 sec) 
Heartbeat CPU  3 instructions:  102000001 cycles:   65652374 heartbeat IPC: 1.45540 cumulative IPC: 1.44362 (Simulation time: 0 hr 10 min 41 sec) 
Heartbeat CPU  2 instructions:  101000003 cycles:   65790585 heartbeat IPC: 1.53584 cumulative IPC: 1.52809 (Simulation time: 0 hr 10 min 42 sec) 
Heartbeat CPU  1 instructions:  101000002 cycles:   66280272 heartbeat IPC: 1.53438 cumulative IPC: 1.50602 (Simulation time: 0 hr 10 min 47 sec) 
Heartbeat CPU  3 instructions:  103000001 cycles:   66339505 heartbeat IPC: 1.45533 cumulative IPC: 1.44386 (Simulation time: 0 hr 10 min 48 sec) 
Heartbeat CPU  0 instructions:   80000000 cycles:   66357199 heartbeat IPC: 0.49064 cumulative IPC: 0.57055 (Simulation time: 0 hr 10 min 48 sec) 
Heartbeat CPU  2 instructions:  102000003 cycles:   66441652 heartbeat IPC: 1.53594 cumulative IPC: 1.52824 (Simulation time: 0 hr 10 min 49 sec) 
Heartbeat CPU  1 instructions:  102000001 cycles:   66931868 heartbeat IPC: 1.53469 cumulative IPC: 1.50656 (Simulation time: 0 hr 10 min 53 sec) 
Heartbeat CPU  3 instructions:  104000000 cycles:   67026678 heartbeat IPC: 1.45524 cumulative IPC: 1.44409 (Simulation time: 0 hr 10 min 54 sec) 
Heartbeat CPU  2 instructions:  103000002 cycles:   67092659 heartbeat IPC: 1.53608 cumulative IPC: 1.52839 (Simulation time: 0 hr 10 min 55 sec) 
Heartbeat CPU  1 instructions:  103000000 cycles:   67585199 heartbeat IPC: 1.53062 cumulative IPC: 1.50700 (Simulation time: 0 hr 11 min 0 sec) 
Heartbeat CPU  3 instructions:  105000001 cycles:   67713901 heartbeat IPC: 1.45513 cumulative IPC: 1.44430 (Simulation time: 0 hr 11 min 1 sec) 
Heartbeat CPU  2 instructions:  104000000 cycles:   67743783 heartbeat IPC: 1.53580 cumulative IPC: 1.52852 (Simulation time: 0 hr 11 min 1 sec) 
Heartbeat CPU  1 instructions:  104000000 cycles:   68238500 heartbeat IPC: 1.53069 cumulative IPC: 1.50744 (Simulation time: 0 hr 11 min 6 sec) 
Heartbeat CPU  2 instructions:  105000000 cycles:   68394878 heartbeat IPC: 1.53587 cumulative IPC: 1.52866 (Simulation time: 0 hr 11 min 7 sec) 
Heartbeat CPU  3 instructions:  106000001 cycles:   68401036 heartbeat IPC: 1.45532 cumulative IPC: 1.44451 (Simulation time: 0 hr 11 min 7 sec) 
Heartbeat CPU  0 instructions:   81000002 cycles:   68493877 heartbeat IPC: 0.46802 cumulative IPC: 0.56448 (Simulation time: 0 hr 11 min 8 sec) 
Heartbeat CPU  1 instructions:  105000000 cycles:   68892366 heartbeat IPC: 1.52937 cumulative IPC: 1.50783 (Simulation time: 0 hr 11 min 12 sec) 
Heartbeat CPU  2 instructions:  106000001 cycles:   69045969 heartbeat IPC: 1.53589 cumulative IPC: 1.52879 (Simulation time: 0 hr 11 min 14 sec) 
Heartbeat CPU  3 instructions:  107000001 cycles:   69088195 heartbeat IPC: 1.45527 cumulative IPC: 1.44471 (Simulation time: 0 hr 11 min 14 sec) 
Heartbeat CPU  1 instructions:  106000003 cycles:   69547150 heartbeat IPC: 1.52723 cumulative IPC: 1.50817 (Simulation time: 0 hr 11 min 18 sec) 
Heartbeat CPU  2 instructions:  107000000 cycles:   69697036 heartbeat IPC: 1.53594 cumulative IPC: 1.52891 (Simulation time: 0 hr 11 min 20 sec) 
Heartbeat CPU  3 instructions:  108000000 cycles:   69775297 heartbeat IPC: 1.45539 cumulative IPC: 1.44491 (Simulation time: 0 hr 11 min 21 sec) 
Heartbeat CPU  1 instructions:  107000002 cycles:   70199005 heartbeat IPC: 1.53408 cumulative IPC: 1.50862 (Simulation time: 0 hr 11 min 25 sec) 
Heartbeat CPU  2 instructions:  108000000 cycles:   70348075 heartbeat IPC: 1.53601 cumulative IPC: 1.52903 (Simulation time: 0 hr 11 min 26 sec) 
Heartbeat CPU  0 instructions:   82000003 cycles:   70365733 heartbeat IPC: 0.53423 cumulative IPC: 0.56298 (Simulation time: 0 hr 11 min 26 sec) 
Heartbeat CPU  3 instructions:  109000001 cycles:   70462481 heartbeat IPC: 1.45522 cumulative IPC: 1.44510 (Simulation time: 0 hr 11 min 27 sec) 
Heartbeat CPU  1 instructions:  108000000 cycles:   70850419 heartbeat IPC: 1.53512 cumulative IPC: 1.50907 (Simulation time: 0 hr 11 min 31 sec) 
Heartbeat CPU  2 instructions:  109000000 cycles:   70999169 heartbeat IPC: 1.53588 cumulative IPC: 1.52915 (Simulation time: 0 hr 11 min 32 sec) 
Heartbeat CPU  3 instructions:  110000001 cycles:   71149644 heartbeat IPC: 1.45526 cumulative IPC: 1.44528 (Simulation time: 0 hr 11 min 34 sec) 
Heartbeat CPU  1 instructions:  109000002 cycles:   71501696 heartbeat IPC: 1.53545 cumulative IPC: 1.50951 (Simulation time: 0 hr 11 min 37 sec) 
Heartbeat CPU  2 instructions:  110000003 cycles:   71650238 heartbeat IPC: 1.53594 cumulative IPC: 1.52926 (Simulation time: 0 hr 11 min 39 sec) 
Heartbeat CPU  3 instructions:  111000001 cycles:   71836799 heartbeat IPC: 1.45528 cumulative IPC: 1.44545 (Simulation time: 0 hr 11 min 40 sec) 
Heartbeat CPU  1 instructions:  110000001 cycles:   72152463 heartbeat IPC: 1.53665 cumulative IPC: 1.50995 (Simulation time: 0 hr 11 min 43 sec) 
Heartbeat CPU  0 instructions:   83000000 cycles:   72283243 heartbeat IPC: 0.52151 cumulative IPC: 0.56099 (Simulation time: 0 hr 11 min 45 sec) 
Heartbeat CPU  2 instructions:  111000002 cycles:   72301356 heartbeat IPC: 1.53582 cumulative IPC: 1.52937 (Simulation time: 0 hr 11 min 45 sec) 
Heartbeat CPU  3 instructions:  112000000 cycles:   72523934 heartbeat IPC: 1.45532 cumulative IPC: 1.44562 (Simulation time: 0 hr 11 min 47 sec) 
Heartbeat CPU  1 instructions:  111000003 cycles:   72805895 heartbeat IPC: 1.53038 cumulative IPC: 1.51028 (Simulation time: 0 hr 11 min 50 sec) 
Heartbeat CPU  2 instructions:  112000000 cycles:   72952384 heartbeat IPC: 1.53603 cumulative IPC: 1.52948 (Simulation time: 0 hr 11 min 51 sec) 
Heartbeat CPU  3 instructions:  113000002 cycles:   73217868 heartbeat IPC: 1.44106 cumulative IPC: 1.44554 (Simulation time: 0 hr 11 min 54 sec) 
Heartbeat CPU  1 instructions:  112000000 cycles:   73459836 heartbeat IPC: 1.52919 cumulative IPC: 1.51058 (Simulation time: 0 hr 11 min 56 sec) 
Heartbeat CPU  2 instructions:  113000003 cycles:   73608319 heartbeat IPC: 1.52455 cumulative IPC: 1.52940 (Simulation time: 0 hr 11 min 57 sec) 
Heartbeat CPU  3 instructions:  114000002 cycles:   73923299 heartbeat IPC: 1.41757 cumulative IPC: 1.44507 (Simulation time: 0 hr 12 min 0 sec) 
Heartbeat CPU  1 instructions:  113000000 cycles:   74118450 heartbeat IPC: 1.51834 cumulative IPC: 1.51071 (Simulation time: 0 hr 12 min 2 sec) 
Heartbeat CPU  0 instructions:   84000000 cycles:   74252853 heartbeat IPC: 0.50771 cumulative IPC: 0.55848 (Simulation time: 0 hr 12 min 3 sec) 
Heartbeat CPU  2 instructions:  114000001 cycles:   74258345 heartbeat IPC: 1.53840 cumulative IPC: 1.52954 (Simulation time: 0 hr 12 min 3 sec) 
Heartbeat CPU  3 instructions:  115000002 cycles:   74628810 heartbeat IPC: 1.41741 cumulative IPC: 1.44461 (Simulation time: 0 hr 12 min 7 sec) 
Heartbeat CPU  1 instructions:  114000003 cycles:   74771507 heartbeat IPC: 1.53126 cumulative IPC: 1.51102 (Simulation time: 0 hr 12 min 8 sec) 
Heartbeat CPU  2 instructions:  115000001 cycles:   74908335 heartbeat IPC: 1.53849 cumulative IPC: 1.52967 (Simulation time: 0 hr 12 min 9 sec) 
Heartbeat CPU  3 instructions:  116000000 cycles:   75334224 heartbeat IPC: 1.41760 cumulative IPC: 1.44416 (Simulation time: 0 hr 12 min 13 sec) 
Heartbeat CPU  1 instructions:  115000001 cycles:   75425246 heartbeat IPC: 1.52966 cumulative IPC: 1.51131 (Simulation time: 0 hr 12 min 14 sec) 
Heartbeat CPU  2 instructions:  116000000 cycles:   75558326 heartbeat IPC: 1.53848 cumulative IPC: 1.52981 (Simulation time: 0 hr 12 min 16 sec) 
Heartbeat CPU  3 instructions:  117000002 cycles:   76039821 heartbeat IPC: 1.41724 cumulative IPC: 1.44373 (Simulation time: 0 hr 12 min 20 sec) 
Heartbeat CPU  1 instructions:  116000000 cycles:   76078686 heartbeat IPC: 1.53036 cumulative IPC: 1.51159 (Simulation time: 0 hr 12 min 20 sec) 
Heartbeat CPU  2 instructions:  117000001 cycles:   76208377 heartbeat IPC: 1.53834 cumulative IPC: 1.52993 (Simulation time: 0 hr 12 min 22 sec) 
Heartbeat CPU  0 instructions:   85000003 cycles:   76495501 heartbeat IPC: 0.44590 cumulative IPC: 0.55275 (Simulation time: 0 hr 12 min 24 sec) 
Heartbeat CPU  1 instructions:  117000003 cycles:   76732457 heartbeat IPC: 1.52959 cumulative IPC: 1.51186 (Simulation time: 0 hr 12 min 27 sec) 
Heartbeat CPU  3 instructions:  118000002 cycles:   76745233 heartbeat IPC: 1.41761 cumulative IPC: 1.44331 (Simulation time: 0 hr 12 min 27 sec) 
Heartbeat CPU  2 instructions:  118000003 cycles:   76858386 heartbeat IPC: 1.53844 cumulative IPC: 1.53006 (Simulation time: 0 hr 12 min 28 sec) 
Heartbeat CPU  1 instructions:  118000001 cycles:   77386408 heartbeat IPC: 1.52916 cumulative IPC: 1.51211 (Simulation time: 0 hr 12 min 33 sec) 
Heartbeat CPU  3 instructions:  119000002 cycles:   77450731 heartbeat IPC: 1.41744 cumulative IPC: 1.44291 (Simulation time: 0 hr 12 min 33 sec) 
Heartbeat CPU  2 instructions:  119000003 cycles:   77508367 heartbeat IPC: 1.53851 cumulative IPC: 1.53018 (Simulation time: 0 hr 12 min 34 sec) 
Heartbeat CPU  1 instructions:  119000001 cycles:   78039904 heartbeat IPC: 1.53023 cumulative IPC: 1.51237 (Simulation time: 0 hr 12 min 39 sec) 
Heartbeat CPU  3 instructions:  120000000 cycles:   78156169 heartbeat IPC: 1.41756 cumulative IPC: 1.44251 (Simulation time: 0 hr 12 min 40 sec) 
Heartbeat CPU  2 instructions:  120000000 cycles:   78158360 heartbeat IPC: 1.53847 cumulative IPC: 1.53030 (Simulation time: 0 hr 12 min 40 sec) 
Heartbeat CPU  1 instructions:  120000000 cycles:   78694030 heartbeat IPC: 1.52876 cumulative IPC: 1.51260 (Simulation time: 0 hr 12 min 45 sec) 
Heartbeat CPU  0 instructions:   86000002 cycles:   78736685 heartbeat IPC: 0.44619 cumulative IPC: 0.54760 (Simulation time: 0 hr 12 min 45 sec) 
Heartbeat CPU  2 instructions:  121000003 cycles:   78808419 heartbeat IPC: 1.53833 cumulative IPC: 1.53041 (Simulation time: 0 hr 12 min 46 sec) 
Heartbeat CPU  3 instructions:  121000002 cycles:   78861728 heartbeat IPC: 1.41732 cumulative IPC: 1.44213 (Simulation time: 0 hr 12 min 47 sec) 
Heartbeat CPU  1 instructions:  121000001 cycles:   79348010 heartbeat IPC: 1.52910 cumulative IPC: 1.51283 (Simulation time: 0 hr 12 min 51 sec) 
Heartbeat CPU  2 instructions:  122000001 cycles:   79458408 heartbeat IPC: 1.53848 cumulative IPC: 1.53052 (Simulation time: 0 hr 12 min 52 sec) 
Heartbeat CPU  3 instructions:  122000002 cycles:   79567199 heartbeat IPC: 1.41749 cumulative IPC: 1.44176 (Simulation time: 0 hr 12 min 53 sec) 
Heartbeat CPU  1 instructions:  122000003 cycles:   80002011 heartbeat IPC: 1.52905 cumulative IPC: 1.51305 (Simulation time: 0 hr 12 min 57 sec) 
Heartbeat CPU  2 instructions:  123000001 cycles:   80108402 heartbeat IPC: 1.53848 cumulative IPC: 1.53063 (Simulation time: 0 hr 12 min 58 sec) 
Heartbeat CPU  3 instructions:  123000002 cycles:   80272636 heartbeat IPC: 1.41756 cumulative IPC: 1.44141 (Simulation time: 0 hr 13 min 0 sec) 
Heartbeat CPU  1 instructions:  123000003 cycles:   80655733 heartbeat IPC: 1.52970 cumulative IPC: 1.51328 (Simulation time: 0 hr 13 min 4 sec) 
Heartbeat CPU  0 instructions:   87000002 cycles:   80753401 heartbeat IPC: 0.49586 cumulative IPC: 0.54544 (Simulation time: 0 hr 13 min 4 sec) 
Heartbeat CPU  2 instructions:  124000000 cycles:   80758395 heartbeat IPC: 1.53848 cumulative IPC: 1.53074 (Simulation time: 0 hr 13 min 5 sec) 
Heartbeat CPU  3 instructions:  124000000 cycles:   80978169 heartbeat IPC: 1.41737 cumulative IPC: 1.44106 (Simulation time: 0 hr 13 min 7 sec) 
Heartbeat CPU  1 instructions:  124000000 cycles:   81310342 heartbeat IPC: 1.52762 cumulative IPC: 1.51347 (Simulation time: 0 hr 13 min 10 sec) 
Heartbeat CPU  2 instructions:  125000001 cycles:   81408472 heartbeat IPC: 1.53828 cumulative IPC: 1.53084 (Simulation time: 0 hr 13 min 11 sec) 
Heartbeat CPU  3 instructions:  125000002 cycles:   81683662 heartbeat IPC: 1.41745 cumulative IPC: 1.44072 (Simulation time: 0 hr 13 min 13 sec) 
Heartbeat CPU  1 instructions:  125000003 cycles:   81964785 heartbeat IPC: 1.52802 cumulative IPC: 1.51366 (Simulation time: 0 hr 13 min 16 sec) 
Heartbeat CPU  2 instructions:  126000001 cycles:   82058419 heartbeat IPC: 1.53859 cumulative IPC: 1.53094 (Simulation time: 0 hr 13 min 17 sec) 
Heartbeat CPU  3 instructions:  126000002 cycles:   82389112 heartbeat IPC: 1.41753 cumulative IPC: 1.44039 (Simulation time: 0 hr 13 min 20 sec) 
Heartbeat CPU  1 instructions:  126000001 cycles:   82618788 heartbeat IPC: 1.52904 cumulative IPC: 1.51386 (Simulation time: 0 hr 13 min 22 sec) 
Heartbeat CPU  2 instructions:  127000003 cycles:   82708403 heartbeat IPC: 1.53850 cumulative IPC: 1.53103 (Simulation time: 0 hr 13 min 23 sec) 
Heartbeat CPU  0 instructions:   88000000 cycles:   82718897 heartbeat IPC: 0.50878 cumulative IPC: 0.54401 (Simulation time: 0 hr 13 min 23 sec) 
Heartbeat CPU  3 instructions:  127000002 cycles:   83094595 heartbeat IPC: 1.41747 cumulative IPC: 1.44007 (Simulation time: 0 hr 13 min 27 sec) 
Heartbeat CPU  1 instructions:  127000001 cycles:   83274363 heartbeat IPC: 1.52538 cumulative IPC: 1.51401 (Simulation time: 0 hr 13 min 28 sec) 
Heartbeat CPU  2 instructions:  128000000 cycles:   83358382 heartbeat IPC: 1.53851 cumulative IPC: 1.53113 (Simulation time: 0 hr 13 min 29 sec) 
Heartbeat CPU  3 instructions:  128000000 cycles:   83800073 heartbeat IPC: 1.41748 cumulative IPC: 1.43976 (Simulation time: 0 hr 13 min 33 sec) 
Heartbeat CPU  1 instructions:  128000000 cycles:   83929255 heartbeat IPC: 1.52697 cumulative IPC: 1.51418 (Simulation time: 0 hr 13 min 35 sec) 
Heartbeat CPU  2 instructions:  129000003 cycles:   84008457 heartbeat IPC: 1.53829 cumulative IPC: 1.53122 (Simulation time: 0 hr 13 min 35 sec) 
Heartbeat CPU  3 instructions:  129000002 cycles:   84505627 heartbeat IPC: 1.41733 cumulative IPC: 1.43946 (Simulation time: 0 hr 13 min 40 sec) 
Heartbeat CPU  1 instructions:  129000001 cycles:   84586572 heartbeat IPC: 1.52134 cumulative IPC: 1.51427 (Simulation time: 0 hr 13 min 41 sec) 
Heartbeat CPU  2 instructions:  130000003 cycles:   84658420 heartbeat IPC: 1.53855 cumulative IPC: 1.53131 (Simulation time: 0 hr 13 min 42 sec) 
Heartbeat CPU  0 instructions:   89000000 cycles:   84854318 heartbeat IPC: 0.46829 cumulative IPC: 0.54092 (Simulation time: 0 hr 13 min 43 sec) 
Heartbeat CPU  3 instructions:  130000002 cycles:   85211039 heartbeat IPC: 1.41761 cumulative IPC: 1.43917 (Simulation time: 0 hr 13 min 47 sec) 
Heartbeat CPU  1 instructions:  130000001 cycles:   85240669 heartbeat IPC: 1.52883 cumulative IPC: 1.51445 (Simulation time: 0 hr 13 min 47 sec) 
Heartbeat CPU  2 instructions:  131000001 cycles:   85308388 heartbeat IPC: 1.53853 cumulative IPC: 1.53140 (Simulation time: 0 hr 13 min 48 sec) 
Heartbeat CPU  1 instructions:  131000003 cycles:   85894674 heartbeat IPC: 1.52904 cumulative IPC: 1.51463 (Simulation time: 0 hr 13 min 53 sec) 
Heartbeat CPU  3 instructions:  131000002 cycles:   85916548 heartbeat IPC: 1.41742 cumulative IPC: 1.43888 (Simulation time: 0 hr 13 min 53 sec) 
Heartbeat CPU  2 instructions:  132000000 cycles:   85958413 heartbeat IPC: 1.53840 cumulative IPC: 1.53148 (Simulation time: 0 hr 13 min 54 sec) 
Heartbeat CPU  1 instructions:  132000000 cycles:   86547715 heartbeat IPC: 1.53129 cumulative IPC: 1.51483 (Simulation time: 0 hr 13 min 59 sec) 
Heartbeat CPU  2 instructions:  133000000 cycles:   86616939 heartbeat IPC: 1.51854 cumulative IPC: 1.53133 (Simulation time: 0 hr 14 min 0 sec) 
Heartbeat CPU  3 instructions:  132000000 cycles:   86621964 heartbeat IPC: 1.41760 cumulative IPC: 1.43860 (Simulation time: 0 hr 14 min 0 sec) 
Heartbeat CPU  2 instructions:  134000000 cycles:   87275057 heartbeat IPC: 1.51948 cumulative IPC: 1.53119 (Simulation time: 0 hr 14 min 5 sec) 
Heartbeat CPU  1 instructions:  133000000 cycles:   87276902 heartbeat IPC: 1.37139 cumulative IPC: 1.51292 (Simulation time: 0 hr 14 min 5 sec) 
Heartbeat CPU  0 instructions:   90000001 cycles:   87322068 heartbeat IPC: 0.40523 cumulative IPC: 0.53482 (Simulation time: 0 hr 14 min 6 sec) 
Heartbeat CPU  3 instructions:  133000002 cycles:   87353682 heartbeat IPC: 1.36665 cumulative IPC: 1.43764 (Simulation time: 0 hr 14 min 6 sec) 
Heartbeat CPU  1 instructions:  134000003 cycles:   87930182 heartbeat IPC: 1.53074 cumulative IPC: 1.51313 (Simulation time: 0 hr 14 min 12 sec) 
Heartbeat CPU  2 instructions:  135000002 cycles:   87933106 heartbeat IPC: 1.51965 cumulative IPC: 1.53105 (Simulation time: 0 hr 14 min 12 sec) 
Heartbeat CPU  3 instructions:  134000002 cycles:   88054413 heartbeat IPC: 1.42708 cumulative IPC: 1.43751 (Simulation time: 0 hr 14 min 13 sec) 
Heartbeat CPU  1 instructions:  135000001 cycles:   88583172 heartbeat IPC: 1.53141 cumulative IPC: 1.51334 (Simulation time: 0 hr 14 min 18 sec) 
Heartbeat CPU  2 instructions:  136000000 cycles:   88591098 heartbeat IPC: 1.51977 cumulative IPC: 1.53092 (Simulation time: 0 hr 14 min 18 sec) 
Heartbeat CPU  3 instructions:  135000002 cycles:   88755299 heartbeat IPC: 1.42677 cumulative IPC: 1.43738 (Simulation time: 0 hr 14 min 19 sec) 
Heartbeat CPU  1 instructions:  136000000 cycles:   89236441 heartbeat IPC: 1.53076 cumulative IPC: 1.51354 (Simulation time: 0 hr 14 min 24 sec) 
Heartbeat CPU  2 instructions:  137000000 cycles:   89249151 heartbeat IPC: 1.51963 cumulative IPC: 1.53079 (Simulation time: 0 hr 14 min 24 sec) 
Heartbeat CPU  3 instructions:  136000000 cycles:   89456119 heartbeat IPC: 1.42690 cumulative IPC: 1.43725 (Simulation time: 0 hr 14 min 26 sec) 
Heartbeat CPU  1 instructions:  137000003 cycles:   89889891 heartbeat IPC: 1.53034 cumulative IPC: 1.51373 (Simulation time: 0 hr 14 min 30 sec) 
Heartbeat CPU  2 instructions:  138000002 cycles:   89907161 heartbeat IPC: 1.51974 cumulative IPC: 1.53066 (Simulation time: 0 hr 14 min 30 sec) 
Heartbeat CPU  3 instructions:  137000002 cycles:   90157037 heartbeat IPC: 1.42670 cumulative IPC: 1.43712 (Simulation time: 0 hr 14 min 32 sec) 
Heartbeat CPU  0 instructions:   91000001 cycles:   90256642 heartbeat IPC: 0.34076 cumulative IPC: 0.52498 (Simulation time: 0 hr 14 min 33 sec) 
Heartbeat CPU  1 instructions:  138000001 cycles:   90542898 heartbeat IPC: 1.53137 cumulative IPC: 1.51393 (Simulation time: 0 hr 14 min 36 sec) 
Heartbeat CPU  2 instructions:  139000002 cycles:   90565177 heartbeat IPC: 1.51972 cumulative IPC: 1.53054 (Simulation time: 0 hr 14 min 36 sec) 
Heartbeat CPU  3 instructions:  138000002 cycles:   90857822 heartbeat IPC: 1.42697 cumulative IPC: 1.43700 (Simulation time: 0 hr 14 min 38 sec) 
Heartbeat CPU  1 instructions:  139000003 cycles:   91202405 heartbeat IPC: 1.51629 cumulative IPC: 1.51396 (Simulation time: 0 hr 14 min 42 sec) 
Heartbeat CPU  2 instructions:  140000000 cycles:   91223129 heartbeat IPC: 1.51986 cumulative IPC: 1.53042 (Simulation time: 0 hr 14 min 42 sec) 
Heartbeat CPU  3 instructions:  139000002 cycles:   91558697 heartbeat IPC: 1.42679 cumulative IPC: 1.43688 (Simulation time: 0 hr 14 min 45 sec) 
Heartbeat CPU  1 instructions:  140000000 cycles:   91853877 heartbeat IPC: 1.53498 cumulative IPC: 1.51419 (Simulation time: 0 hr 14 min 48 sec) 
Heartbeat CPU  2 instructions:  141000002 cycles:   91881177 heartbeat IPC: 1.51965 cumulative IPC: 1.53030 (Simulation time: 0 hr 14 min 48 sec) 
Heartbeat CPU  3 instructions:  140000000 cycles:   92259394 heartbeat IPC: 1.42715 cumulative IPC: 1.43676 (Simulation time: 0 hr 14 min 52 sec) 
Heartbeat CPU  0 instructions:   92000000 cycles:   92398607 heartbeat IPC: 0.46686 cumulative IPC: 0.52290 (Simulation time: 0 hr 14 min 53 sec) 
Heartbeat CPU  1 instructions:  141000001 cycles:   92505494 heartbeat IPC: 1.53465 cumulative IPC: 1.51441 (Simulation time: 0 hr 14 min 54 sec) 
Heartbeat CPU  2 instructions:  142000000 cycles:   92539196 heartbeat IPC: 1.51971 cumulative IPC: 1.53018 (Simulation time: 0 hr 14 min 55 sec) 
Heartbeat CPU  3 instructions:  141000002 cycles:   92960308 heartbeat IPC: 1.42671 cumulative IPC: 1.43665 (Simulation time: 0 hr 14 min 59 sec) 
Heartbeat CPU  1 instructions:  142000003 cycles:   93156078 heartbeat IPC: 1.53708 cumulative IPC: 1.51465 (Simulation time: 0 hr 15 min 1 sec) 
Heartbeat CPU  2 instructions:  143000000 cycles:   93197212 heartbeat IPC: 1.51972 cumulative IPC: 1.53007 (Simulation time: 0 hr 15 min 2 sec) 
Heartbeat CPU  0 instructions:   93000001 cycles:   93508295 heartbeat IPC: 0.90116 cumulative IPC: 0.52977 (Simulation time: 0 hr 15 min 5 sec) 
Heartbeat CPU  3 instructions:  142000002 cycles:   93661096 heartbeat IPC: 1.42697 cumulative IPC: 1.43654 (Simulation time: 0 hr 15 min 7 sec) 
Heartbeat CPU  1 instructions:  143000003 cycles:   93806440 heartbeat IPC: 1.53761 cumulative IPC: 1.51490 (Simulation time: 0 hr 15 min 8 sec) 
Heartbeat CPU  2 instructions:  144000000 cycles:   93855227 heartbeat IPC: 1.51972 cumulative IPC: 1.52996 (Simulation time: 0 hr 15 min 9 sec) 
[...]
Core_0_L2C_load_miss 1178936
Core_0_L2C_RFOs 256462
Core_0_L2C_RFO_hit 22954
Core_0_L2C_RFO_miss 233508
Core_0_L2C_prefetches 1406764
Core_0_L2C_prefetch_hit 388567
Core_0_L2C_prefetch_miss 1018197
Core_0_L2C_writebacks 592404
Core_0_L2C_writeback_hit 592156
Core_0_L2C_writeback_miss 248
Core_0_L2C_prefetch_requested 2902877
Core_0_L2C_prefetch_dropped 0
Core_0_L2C_prefetch_issued 2902877
Core_0_L2C_prefetch_filled 1713150
Core_0_L2C_prefetch_useful 1160730
Core_0_L2C_prefetch_useless 552384
Core_0_L2C_prefetch_late 387560
Core_0_L2C_average_miss_latency 132.78247

Core_0_L2C_rq_access 2247803
Core_0_L2C_rq_forward 0
Core_0_L2C_rq_merged 0
Core_0_L2C_rq_to_cache 2247794
Core_0_L2C_rq_full 0

Core_0_L2C_wq_access 592404
Core_0_L2C_wq_forward 9
Core_0_L2C_wq_merged 0
Core_0_L2C_wq_to_cache 592404
Core_0_L2C_wq_full 0

Core_0_L2C_pq_access 2902877
Core_0_L2C_pq_forward 0
Core_0_L2C_pq_merged 0
Core_0_L2C_pq_to_cache 2902877
Core_0_L2C_pq_full 0

Core_0_L2C_acc_epochs 229065
Core_0_L2C_acc_level_0 14721
Core_0_L2C_acc_level_1 12918
Core_0_L2C_acc_level_2 8351
Core_0_L2C_acc_level_3 10725
Core_0_L2C_acc_level_4 13636
Core_0_L2C_acc_level_5 14089
Core_0_L2C_acc_level_6 14170
Core_0_L2C_acc_level_7 16514
Core_0_L2C_acc_level_8 20453
Core_0_L2C_acc_level_9 103488

Core_0_LLC_total_access 2996493
Core_0_LLC_total_hit 1326537
Core_0_LLC_total_miss 1669956
Core_0_LLC_loads 793499
Core_0_LLC_load_hit 360686
Core_0_LLC_load_miss 432813
Core_0_LLC_RFOs 233496
Core_0_LLC_RFO_hit 43756
Core_0_LLC_RFO_miss 189740
Core_0_LLC_prefetches 1403646
Core_0_LLC_prefetch_hit 407804
Core_0_LLC_prefetch_miss 995842
Core_0_LLC_writebacks 565852
Core_0_LLC_writeback_hit 514291
Core_0_LLC_writeback_miss 51561
Core_0_LLC_prefetch_requested 0
Core_0_LLC_prefetch_dropped 0
Core_0_LLC_prefetch_issued 0
Core_0_LLC_prefetch_filled 1500737
Core_0_LLC_prefetch_useful 78823
Core_0_LLC_prefetch_useless 1393494
Core_0_LLC_prefetch_late 0
Core_0_LLC_average_miss_latency 150.39737

Core_0_LLC_rq_access 1031202
Core_0_LLC_rq_forward 0
Core_0_LLC_rq_merged 0
Core_0_LLC_rq_to_cache 1031200
Core_0_LLC_rq_full 0

Core_0_LLC_wq_access 566945
Core_0_LLC_wq_forward 2
Core_0_LLC_wq_merged 0
Core_0_LLC_wq_to_cache 566945
Core_0_LLC_wq_full 0

Core_0_LLC_pq_access 2105617
Core_0_LLC_pq_forward 0
Core_0_LLC_pq_merged 0
Core_0_LLC_pq_to_cache 2105617
Core_0_LLC_pq_full 0

Core_0_LLC_acc_epochs 319600
Core_0_LLC_acc_level_0 276677
Core_0_LLC_acc_level_1 11704
Core_0_LLC_acc_level_2 8092
Core_0_LLC_acc_level_3 3552
Core_0_LLC_acc_level_4 2033
Core_0_LLC_acc_level_5 5587
Core_0_LLC_acc_level_6 2114
Core_0_LLC_acc_level_7 1675
Core_0_LLC_acc_level_8 1193
Core_0_LLC_acc_level_9 6973

Core_0_major_page_fault 0
Core_0_minor_page_fault 11115

Core_1_instructions 150000001
Core_1_cycles 99128552
Core_1_IPC 1.51319

Core_1_branch_prediction_accuracy 99.99393
Core_1_branch_MPKI 0.01541
Core_1_average_ROB_occupancy_at_mispredict 46.08925

Core_1_L1D_total_access 25057661
Core_1_L1D_total_hit 25055360
Core_1_L1D_total_miss 2301
Core_1_L1D_loads 22592526
Core_1_L1D_load_hit 22590706
Core_1_L1D_load_miss 1820
Core_1_L1D_RFOs 2465135
Core_1_L1D_RFO_hit 2464654
Core_1_L1D_RFO_miss 481
Core_1_L1D_prefetches 0
Core_1_L1D_prefetch_hit 0
Core_1_L1D_prefetch_miss 0
Core_1_L1D_writebacks 0
Core_1_L1D_writeback_hit 0
Core_1_L1D_writeback_miss 0
Core_1_L1D_prefetch_requested 0
Core_1_L1D_prefetch_dropped 0
Core_1_L1D_prefetch_issued 0
Core_1_L1D_prefetch_filled 0
Core_1_L1D_prefetch_useful 0
Core_1_L1D_prefetch_useless 0
Core_1_L1D_prefetch_late 0
Core_1_L1D_average_miss_latency 306.60582

Core_1_L1D_rq_access 100600097
Core_1_L1D_rq_forward 0
Core_1_L1D_rq_merged 33269280
Core_1_L1D_rq_to_cache 67330813
Core_1_L1D_rq_full 0

Core_1_L1D_wq_access 7351416
Core_1_L1D_wq_forward 4
Core_1_L1D_wq_merged 49
Core_1_L1D_wq_to_cache 7351367
Core_1_L1D_wq_full 0

Core_1_L1D_pq_access 0
Core_1_L1D_pq_forward 0
Core_1_L1D_pq_merged 0
Core_1_L1D_pq_to_cache 0
Core_1_L1D_pq_full 0

Core_1_L1D_acc_epochs 318461
Core_1_L1D_acc_level_0 318461
Core_1_L1D_acc_level_1 0
Core_1_L1D_acc_level_2 0
Core_1_L1D_acc_level_3 0
Core_1_L1D_acc_level_4 0
Core_1_L1D_acc_level_5 0
Core_1_L1D_acc_level_6 0
Core_1_L1D_acc_level_7 0
Core_1_L1D_acc_level_8 0
Core_1_L1D_acc_level_9 0

Core_1_L1I_total_access 42989459
Core_1_L1I_total_hit 42985463
Core_1_L1I_total_miss 3996
Core_1_L1I_loads 42989459
Core_1_L1I_load_hit 42985463
Core_1_L1I_load_miss 3996
Core_1_L1I_RFOs 0
Core_1_L1I_RFO_hit 0
Core_1_L1I_RFO_miss 0
Core_1_L1I_prefetches 0
Core_1_L1I_prefetch_hit 0
Core_1_L1I_prefetch_miss 0
Core_1_L1I_writebacks 0
Core_1_L1I_writeback_hit 0
Core_1_L1I_writeback_miss 0
Core_1_L1I_prefetch_requested 0
Core_1_L1I_prefetch_dropped 0
Core_1_L1I_prefetch_issued 0
Core_1_L1I_prefetch_filled 0
Core_1_L1I_prefetch_useful 0
Core_1_L1I_prefetch_useless 0
Core_1_L1I_prefetch_late 0
Core_1_L1I_average_miss_latency 234.52628

Core_1_L1I_rq_access 447209211
Core_1_L1I_rq_forward 0
Core_1_L1I_rq_merged 319056628
Core_1_L1I_rq_to_cache 128152583
Core_1_L1I_rq_full 0

Core_1_L1I_wq_access 0
Core_1_L1I_wq_forward 0
Core_1_L1I_wq_merged 0
Core_1_L1I_wq_to_cache 0
Core_1_L1I_wq_full 0

Core_1_L1I_pq_access 0
Core_1_L1I_pq_forward 0
Core_1_L1I_pq_merged 0
Core_1_L1I_pq_to_cache 0
Core_1_L1I_pq_full 0

Core_1_L1I_acc_epochs 318461
Core_1_L1I_acc_level_0 318461
Core_1_L1I_acc_level_1 0
Core_1_L1I_acc_level_2 0
Core_1_L1I_acc_level_3 0
Core_1_L1I_acc_level_4 0
Core_1_L1I_acc_level_5 0
Core_1_L1I_acc_level_6 0
Core_1_L1I_acc_level_7 0
Core_1_L1I_acc_level_8 0
Core_1_L1I_acc_level_9 0

Core_1_L2C_total_access 12545
Core_1_L2C_total_hit 8722
Core_1_L2C_total_miss 3823
Core_1_L2C_loads 5816
Core_1_L2C_load_hit 3909
Core_1_L2C_load_miss 1907
Core_1_L2C_RFOs 481
Core_1_L2C_RFO_hit 222
Core_1_L2C_RFO_miss 259
Core_1_L2C_prefetches 5159
Core_1_L2C_prefetch_hit 3546
Core_1_L2C_prefetch_miss 1613
Core_1_L2C_writebacks 1089
Core_1_L2C_writeback_hit 1045
Core_1_L2C_writeback_miss 44
Core_1_L2C_prefetch_requested 16299
Core_1_L2C_prefetch_dropped 0
Core_1_L2C_prefetch_issued 16299
Core_1_L2C_prefetch_filled 3893
Core_1_L2C_prefetch_useful 1365
Core_1_L2C_prefetch_useless 1632
Core_1_L2C_prefetch_late 400
Core_1_L2C_average_miss_latency 445.58253

Core_1_L2C_rq_access 16583
Core_1_L2C_rq_forward 0
Core_1_L2C_rq_merged 0
Core_1_L2C_rq_to_cache 16583
Core_1_L2C_rq_full 0

Core_1_L2C_wq_access 3018
Core_1_L2C_wq_forward 0
Core_1_L2C_wq_merged 0
Core_1_L2C_wq_to_cache 3018
Core_1_L2C_wq_full 0

Core_1_L2C_pq_access 16299
Core_1_L2C_pq_forward 0
Core_1_L2C_pq_merged 0
Core_1_L2C_pq_to_cache 16299
Core_1_L2C_pq_full 0

Core_1_L2C_acc_epochs 318461
Core_1_L2C_acc_level_0 317799
Core_1_L2C_acc_level_1 140
Core_1_L2C_acc_level_2 149
Core_1_L2C_acc_level_3 158
Core_1_L2C_acc_level_4 94
Core_1_L2C_acc_level_5 63
Core_1_L2C_acc_level_6 33
Core_1_L2C_acc_level_7 13
Core_1_L2C_acc_level_8 2
Core_1_L2C_acc_level_9 10

Core_1_LLC_total_access 4107
Core_1_LLC_total_hit 195
Core_1_LLC_total_miss 3912
Core_1_LLC_loads 1748
Core_1_LLC_load_hit 63
Core_1_LLC_load_miss 1685
Core_1_LLC_RFOs 257
Core_1_LLC_RFO_hit 61
Core_1_LLC_RFO_miss 196
Core_1_LLC_prefetches 1774
Core_1_LLC_prefetch_hit 14
Core_1_LLC_prefetch_miss 1760
Core_1_LLC_writebacks 328
Core_1_LLC_writeback_hit 57
Core_1_LLC_writeback_miss 271
Core_1_LLC_prefetch_requested 0
Core_1_LLC_prefetch_dropped 0
Core_1_LLC_prefetch_issued 0
Core_1_LLC_prefetch_filled 1500737
Core_1_LLC_prefetch_useful 78823
Core_1_LLC_prefetch_useless 1393494
Core_1_LLC_prefetch_late 0
Core_1_LLC_average_miss_latency 64201.68303

Core_1_LLC_rq_access 1031202
Core_1_LLC_rq_forward 0
Core_1_LLC_rq_merged 0
Core_1_LLC_rq_to_cache 1031200
Core_1_LLC_rq_full 0

Core_1_LLC_wq_access 566945
Core_1_LLC_wq_forward 2
Core_1_LLC_wq_merged 0
Core_1_LLC_wq_to_cache 566945
Core_1_LLC_wq_full 0

Core_1_LLC_pq_access 2105617
Core_1_LLC_pq_forward 0
Core_1_LLC_pq_merged 0
Core_1_LLC_pq_to_cache 2105617
Core_1_LLC_pq_full 0

Core_1_LLC_acc_epochs 319600
Core_1_LLC_acc_level_0 276677
Core_1_LLC_acc_level_1 11704
Core_1_LLC_acc_level_2 8092
Core_1_LLC_acc_level_3 3552
Core_1_LLC_acc_level_4 2033
Core_1_LLC_acc_level_5 5587
Core_1_LLC_acc_level_6 2114
Core_1_LLC_acc_level_7 1675
Core_1_LLC_acc_level_8 1193
Core_1_LLC_acc_level_9 6973

Core_1_major_page_fault 0
Core_1_minor_page_fault 567

Core_2_instructions 150000001
Core_2_cycles 98108838
Core_2_IPC 1.52891

Core_2_branch_prediction_accuracy 99.99959
Core_2_branch_MPKI 0.00105
Core_2_average_ROB_occupancy_at_mispredict 112.72516

Core_2_L1D_total_access 25006975
Core_2_L1D_total_hit 25006970
Core_2_L1D_total_miss 5
Core_2_L1D_loads 22547350
Core_2_L1D_load_hit 22547350
Core_2_L1D_load_miss 0
Core_2_L1D_RFOs 2459625
Core_2_L1D_RFO_hit 2459620
Core_2_L1D_RFO_miss 5
Core_2_L1D_prefetches 0
Core_2_L1D_prefetch_hit 0
Core_2_L1D_prefetch_miss 0
Core_2_L1D_writebacks 0
Core_2_L1D_writeback_hit 0
Core_2_L1D_writeback_miss 0
Core_2_L1D_prefetch_requested 0
Core_2_L1D_prefetch_dropped 0
Core_2_L1D_prefetch_issued 0
Core_2_L1D_prefetch_filled 0
Core_2_L1D_prefetch_useful 0
Core_2_L1D_prefetch_useless 0
Core_2_L1D_prefetch_late 0
Core_2_L1D_average_miss_latency 431.20000

Core_2_L1D_rq_access 101439603
Core_2_L1D_rq_forward 0
Core_2_L1D_rq_merged 33671347
Core_2_L1D_rq_to_cache 67768256
Core_2_L1D_rq_full 0

Core_2_L1D_wq_access 7393884
Core_2_L1D_wq_forward 0
Core_2_L1D_wq_merged 0
Core_2_L1D_wq_to_cache 7393884
Core_2_L1D_wq_full 0

Core_2_L1D_pq_access 0
Core_2_L1D_pq_forward 0
Core_2_L1D_pq_merged 0
Core_2_L1D_pq_to_cache 0
Core_2_L1D_pq_full 0

Core_2_L1D_acc_epochs 319507
Core_2_L1D_acc_level_0 319507
Core_2_L1D_acc_level_1 0
Core_2_L1D_acc_level_2 0
Core_2_L1D_acc_level_3 0
Core_2_L1D_acc_level_4 0
Core_2_L1D_acc_level_5 0
Core_2_L1D_acc_level_6 0
Core_2_L1D_acc_level_7 0
Core_2_L1D_acc_level_8 0
Core_2_L1D_acc_level_9 0

Core_2_L1I_total_access 42964505
Core_2_L1I_total_hit 42964499
Core_2_L1I_total_miss 6
Core_2_L1I_loads 42964505
Core_2_L1I_load_hit 42964499
Core_2_L1I_load_miss 6
Core_2_L1I_RFOs 0
Core_2_L1I_RFO_hit 0
Core_2_L1I_RFO_miss 0
Core_2_L1I_prefetches 0
Core_2_L1I_prefetch_hit 0
Core_2_L1I_prefetch_miss 0
Core_2_L1I_writebacks 0
Core_2_L1I_writeback_hit 0
Core_2_L1I_writeback_miss 0
Core_2_L1I_prefetch_requested 0
Core_2_L1I_prefetch_dropped 0
Core_2_L1I_prefetch_issued 0
Core_2_L1I_prefetch_filled 0
Core_2_L1I_prefetch_useful 0
Core_2_L1I_prefetch_useless 0
Core_2_L1I_prefetch_late 0
Core_2_L1I_average_miss_latency 185.83333

Core_2_L1I_rq_access 450918653
Core_2_L1I_rq_forward 0
Core_2_L1I_rq_merged 321766869
Core_2_L1I_rq_to_cache 129151784
Core_2_L1I_rq_full 0

Core_2_L1I_wq_access 0
Core_2_L1I_wq_forward 0
Core_2_L1I_wq_merged 0
Core_2_L1I_wq_to_cache 0
Core_2_L1I_wq_full 0

Core_2_L1I_pq_access 0
Core_2_L1I_pq_forward 0
Core_2_L1I_pq_merged 0
Core_2_L1I_pq_to_cache 0
Core_2_L1I_pq_full 0

Core_2_L1I_acc_epochs 319507
Core_2_L1I_acc_level_0 319507
Core_2_L1I_acc_level_1 0
Core_2_L1I_acc_level_2 0
Core_2_L1I_acc_level_3 0
Core_2_L1I_acc_level_4 0
Core_2_L1I_acc_level_5 0
Core_2_L1I_acc_level_6 0
Core_2_L1I_acc_level_7 0
Core_2_L1I_acc_level_8 0
Core_2_L1I_acc_level_9 0

Core_2_L2C_total_access 16
Core_2_L2C_total_hit 2
Core_2_L2C_total_miss 14
Core_2_L2C_loads 6
Core_2_L2C_load_hit 2
Core_2_L2C_load_miss 4
Core_2_L2C_RFOs 5
Core_2_L2C_RFO_hit 0
Core_2_L2C_RFO_miss 5
Core_2_L2C_prefetches 5
Core_2_L2C_prefetch_hit 0
Core_2_L2C_prefetch_miss 5
Core_2_L2C_writebacks 0
Core_2_L2C_writeback_hit 0
Core_2_L2C_writeback_miss 0
Core_2_L2C_prefetch_requested 182
Core_2_L2C_prefetch_dropped 0
Core_2_L2C_prefetch_issued 182
Core_2_L2C_prefetch_filled 133
Core_2_L2C_prefetch_useful 53
Core_2_L2C_prefetch_useless 0
Core_2_L2C_prefetch_late 20
Core_2_L2C_average_miss_latency 254.57143

Core_2_L2C_rq_access 11
Core_2_L2C_rq_forward 0
Core_2_L2C_rq_merged 0
Core_2_L2C_rq_to_cache 11
Core_2_L2C_rq_full 0

Core_2_L2C_wq_access 0
Core_2_L2C_wq_forward 0
Core_2_L2C_wq_merged 0
Core_2_L2C_wq_to_cache 0
Core_2_L2C_wq_full 0

Core_2_L2C_pq_access 182
Core_2_L2C_pq_forward 0
Core_2_L2C_pq_merged 0
Core_2_L2C_pq_to_cache 182
Core_2_L2C_pq_full 0

Core_2_L2C_acc_epochs 319507
Core_2_L2C_acc_level_0 319499
Core_2_L2C_acc_level_1 4
Core_2_L2C_acc_level_2 3
Core_2_L2C_acc_level_3 0
Core_2_L2C_acc_level_4 1
Core_2_L2C_acc_level_5 0
Core_2_L2C_acc_level_6 0
Core_2_L2C_acc_level_7 0
Core_2_L2C_acc_level_8 0
Core_2_L2C_acc_level_9 0

Core_2_LLC_total_access 14
Core_2_LLC_total_hit 0
Core_2_LLC_total_miss 14
Core_2_LLC_loads 3
Core_2_LLC_load_hit 0
Core_2_LLC_load_miss 3
Core_2_LLC_RFOs 5
Core_2_LLC_RFO_hit 0
Core_2_LLC_RFO_miss 5
Core_2_LLC_prefetches 6
Core_2_LLC_prefetch_hit 0
Core_2_LLC_prefetch_miss 6
Core_2_LLC_writebacks 0
Core_2_LLC_writeback_hit 0
Core_2_LLC_writeback_miss 0
Core_2_LLC_prefetch_requested 0
Core_2_LLC_prefetch_dropped 0
Core_2_LLC_prefetch_issued 0
Core_2_LLC_prefetch_filled 1500737
Core_2_LLC_prefetch_useful 78823
Core_2_LLC_prefetch_useless 1393494
Core_2_LLC_prefetch_late 0
Core_2_LLC_average_miss_latency 17939784.57143

Core_2_LLC_rq_access 1031202
Core_2_LLC_rq_forward 0
Core_2_LLC_rq_merged 0
Core_2_LLC_rq_to_cache 1031200
Core_2_LLC_rq_full 0

Core_2_LLC_wq_access 566945
Core_2_LLC_wq_forward 2
Core_2_LLC_wq_merged 0
Core_2_LLC_wq_to_cache 566945
Core_2_LLC_wq_full 0

Core_2_LLC_pq_access 2105617
Core_2_LLC_pq_forward 0
Core_2_LLC_pq_merged 0
Core_2_LLC_pq_to_cache 2105617
Core_2_LLC_pq_full 0

Core_2_LLC_acc_epochs 319600
Core_2_LLC_acc_level_0 276677
Core_2_LLC_acc_level_1 11704
Core_2_LLC_acc_level_2 8092
Core_2_LLC_acc_level_3 3552
Core_2_LLC_acc_level_4 2033
Core_2_LLC_acc_level_5 5587
Core_2_LLC_acc_level_6 2114
Core_2_LLC_acc_level_7 1675
Core_2_LLC_acc_level_8 1193
Core_2_LLC_acc_level_9 6973

Core_2_major_page_fault 0
Core_2_minor_page_fault 53

Core_3_instructions 150000000
Core_3_cycles 104711475
Core_3_IPC 1.43251

Core_3_branch_prediction_accuracy 99.99913
Core_3_branch_MPKI 0.00220
Core_3_average_ROB_occupancy_at_mispredict 108.72281

Core_3_L1D_total_access 25529836
Core_3_L1D_total_hit 25529815
Core_3_L1D_total_miss 21
Core_3_L1D_loads 23653242
Core_3_L1D_load_hit 23653221
Core_3_L1D_load_miss 21
Core_3_L1D_RFOs 1876594
Core_3_L1D_RFO_hit 1876594
Core_3_L1D_RFO_miss 0
Core_3_L1D_prefetches 0
Core_3_L1D_prefetch_hit 0
Core_3_L1D_prefetch_miss 0
Core_3_L1D_writebacks 0
Core_3_L1D_writeback_hit 0
Core_3_L1D_writeback_miss 0
Core_3_L1D_prefetch_requested 0
Core_3_L1D_prefetch_dropped 0
Core_3_L1D_prefetch_issued 0
Core_3_L1D_prefetch_filled 0
Core_3_L1D_prefetch_useful 0
Core_3_L1D_prefetch_useless 0
Core_3_L1D_prefetch_late 0
Core_3_L1D_average_miss_latency 186.14286

Core_3_L1D_rq_access 104757060
Core_3_L1D_rq_forward 0
Core_3_L1D_rq_merged 38168885
Core_3_L1D_rq_to_cache 66588175
Core_3_L1D_rq_full 0

Core_3_L1D_wq_access 5293888
Core_3_L1D_wq_forward 0
Core_3_L1D_wq_merged 11
Core_3_L1D_wq_to_cache 5293877
Core_3_L1D_wq_full 0

Core_3_L1D_pq_access 0
Core_3_L1D_pq_forward 0
Core_3_L1D_pq_merged 0
Core_3_L1D_pq_to_cache 0
Core_3_L1D_pq_full 0

Core_3_L1D_acc_epochs 319365
Core_3_L1D_acc_level_0 319365
Core_3_L1D_acc_level_1 0
Core_3_L1D_acc_level_2 0
Core_3_L1D_acc_level_3 0
Core_3_L1D_acc_level_4 0
Core_3_L1D_acc_level_5 0
Core_3_L1D_acc_level_6 0
Core_3_L1D_acc_level_7 0
Core_3_L1D_acc_level_8 0
Core_3_L1D_acc_level_9 0

Core_3_L1I_total_access 45987960
Core_3_L1I_total_hit 45987926
Core_3_L1I_total_miss 34
Core_3_L1I_loads 45987960
Core_3_L1I_load_hit 45987926
Core_3_L1I_load_miss 34
Core_3_L1I_RFOs 0
Core_3_L1I_RFO_hit 0
Core_3_L1I_RFO_miss 0
Core_3_L1I_prefetches 0
Core_3_L1I_prefetch_hit 0
Core_3_L1I_prefetch_miss 0
Core_3_L1I_writebacks 0
Core_3_L1I_writeback_hit 0
Core_3_L1I_writeback_miss 0
Core_3_L1I_prefetch_requested 0
Core_3_L1I_prefetch_dropped 0
Core_3_L1I_prefetch_issued 0
Core_3_L1I_prefetch_filled 0
Core_3_L1I_prefetch_useful 0
Core_3_L1I_prefetch_useless 0
Core_3_L1I_prefetch_late 0
Core_3_L1I_average_miss_latency 130.02941

Core_3_L1I_rq_access 423092359
Core_3_L1I_rq_forward 0
Core_3_L1I_rq_merged 293644754
Core_3_L1I_rq_to_cache 129447605
Core_3_L1I_rq_full 0

Core_3_L1I_wq_access 0
Core_3_L1I_wq_forward 0
Core_3_L1I_wq_merged 0
Core_3_L1I_wq_to_cache 0
Core_3_L1I_wq_full 0

Core_3_L1I_pq_access 0
Core_3_L1I_pq_forward 0
Core_3_L1I_pq_merged 0
Core_3_L1I_pq_to_cache 0
Core_3_L1I_pq_full 0

Core_3_L1I_acc_epochs 319365
Core_3_L1I_acc_level_0 319365
Core_3_L1I_acc_level_1 0
Core_3_L1I_acc_level_2 0
Core_3_L1I_acc_level_3 0
Core_3_L1I_acc_level_4 0
Core_3_L1I_acc_level_5 0
Core_3_L1I_acc_level_6 0
Core_3_L1I_acc_level_7 0
Core_3_L1I_acc_level_8 0
Core_3_L1I_acc_level_9 0

Core_3_L2C_total_access 120
Core_3_L2C_total_hit 110
Core_3_L2C_total_miss 10
Core_3_L2C_loads 55
Core_3_L2C_load_hit 50
Core_3_L2C_load_miss 5
Core_3_L2C_RFOs 0
Core_3_L2C_RFO_hit 0
Core_3_L2C_RFO_miss 0
Core_3_L2C_prefetches 55
Core_3_L2C_prefetch_hit 50
Core_3_L2C_prefetch_miss 5
Core_3_L2C_writebacks 10
Core_3_L2C_writeback_hit 10
Core_3_L2C_writeback_miss 0
Core_3_L2C_prefetch_requested 731
Core_3_L2C_prefetch_dropped 0
Core_3_L2C_prefetch_issued 731
Core_3_L2C_prefetch_filled 416
Core_3_L2C_prefetch_useful 207
Core_3_L2C_prefetch_useless 0
Core_3_L2C_prefetch_late 44
Core_3_L2C_average_miss_latency 238.10000

Core_3_L2C_rq_access 169
Core_3_L2C_rq_forward 0
Core_3_L2C_rq_merged 0
Core_3_L2C_rq_to_cache 169
Core_3_L2C_rq_full 0

Core_3_L2C_wq_access 37
Core_3_L2C_wq_forward 0
Core_3_L2C_wq_merged 0
Core_3_L2C_wq_to_cache 37
Core_3_L2C_wq_full 0

Core_3_L2C_pq_access 731
Core_3_L2C_pq_forward 0
Core_3_L2C_pq_merged 0
Core_3_L2C_pq_to_cache 731
Core_3_L2C_pq_full 0

Core_3_L2C_acc_epochs 319365
Core_3_L2C_acc_level_0 319342
Core_3_L2C_acc_level_1 7
Core_3_L2C_acc_level_2 2
Core_3_L2C_acc_level_3 3
Core_3_L2C_acc_level_4 2
Core_3_L2C_acc_level_5 7
Core_3_L2C_acc_level_6 0
Core_3_L2C_acc_level_7 2
Core_3_L2C_acc_level_8 0
Core_3_L2C_acc_level_9 0

Core_3_LLC_total_access 10
Core_3_LLC_total_hit 0
Core_3_LLC_total_miss 10
Core_3_LLC_loads 5
Core_3_LLC_load_hit 0
Core_3_LLC_load_miss 5
Core_3_LLC_RFOs 0
Core_3_LLC_RFO_hit 0
Core_3_LLC_RFO_miss 0
Core_3_LLC_prefetches 5
Core_3_LLC_prefetch_hit 0
Core_3_LLC_prefetch_miss 5
Core_3_LLC_writebacks 0
Core_3_LLC_writeback_hit 0
Core_3_LLC_writeback_miss 0
Core_3_LLC_prefetch_requested 0
Core_3_LLC_prefetch_dropped 0
Core_3_LLC_prefetch_issued 0
Core_3_LLC_prefetch_filled 1500737
Core_3_LLC_prefetch_useful 78823
Core_3_LLC_prefetch_useless 1393494
Core_3_LLC_prefetch_late 0
Core_3_LLC_average_miss_latency 25115698.40000

Core_3_LLC_rq_access 1031202
Core_3_LLC_rq_forward 0
Core_3_LLC_rq_merged 0
Core_3_LLC_rq_to_cache 1031200
Core_3_LLC_rq_full 0

Core_3_LLC_wq_access 566945
Core_3_LLC_wq_forward 2
Core_3_LLC_wq_merged 0
Core_3_LLC_wq_to_cache 566945
Core_3_LLC_wq_full 0

Core_3_LLC_pq_access 2105617
Core_3_LLC_pq_forward 0
Core_3_LLC_pq_merged 0
Core_3_LLC_pq_to_cache 2105617
Core_3_LLC_pq_full 0

Core_3_LLC_acc_epochs 319600
Core_3_LLC_acc_level_0 276677
Core_3_LLC_acc_level_1 11704
Core_3_LLC_acc_level_2 8092
Core_3_LLC_acc_level_3 3552
Core_3_LLC_acc_level_4 2033
Core_3_LLC_acc_level_5 5587
Core_3_LLC_acc_level_6 2114
Core_3_LLC_acc_level_7 1675
Core_3_LLC_acc_level_8 1193
Core_3_LLC_acc_level_9 6973

Core_3_major_page_fault 0
Core_3_minor_page_fault 123

[CoopPythia Stats]
 - Useful prefetches: 613012
 - Final alpha: 0.10000
[CoopPythia Stats]
 - Useful prefetches: 613012
 - Final alpha: 0.10000
[CoopPythia Stats]
 - Useful prefetches: 613012
 - Final alpha: 0.10000
[CoopPythia Stats]
 - Useful prefetches: 613012
 - Final alpha: 0.10000
Channel_0_RQ_row_buffer_hit 309192
Channel_0_RQ_row_buffer_miss 506244
Channel_0_WQ_row_buffer_hit 82167
Channel_0_WQ_row_buffer_miss 170488
Channel_0_WQ_full 0
Channel_0_dbus_congested 202639

Channel_1_RQ_row_buffer_hit 305473
Channel_1_RQ_row_buffer_miss 504616
Channel_1_WQ_row_buffer_hit 81928
Channel_1_WQ_row_buffer_miss 170067
Channel_1_WQ_full 0
Channel_1_dbus_congested 201645

avg_congested_cycle 10

DRAM_bw_pochs 1278397
DRAM_bw_level_0 1224385
DRAM_bw_level_1 45167
DRAM_bw_level_2 8115
DRAM_bw_level_3 730
